LAMMPS (11 Aug 2017)
# ---- initialize simulations
clear
units metal
dimension 3
boundary p p p
atom_style atomic
atom_modify map array
# ---- create atoms
read_data /ufrc/phillpot/eragasa/pareto_optimization_3.5NN/rank_51/Ni_dia.lmps_min_all/lammps.structure
  triclinic box = (0 0 0) to (4.8791 4.8791 4.8791) with tilt (0 0 0)
  reading atoms ...
  8 atoms
# ---- define interatomic potential
include potential.mod
mass 1 58.6934

group Ni type 1
8 atoms in group Ni

pair_style eam/alloy
pair_coeff * * /ufrc/phillpot/eragasa/pareto_optimization_3.5NN/rank_51/Ni_dia.lmps_min_all/Ni.eam.alloy Ni

neighbor 1.0 bin
neigh_modify every 1 delay 0 check yes
# ---- define settings
compute eng all pe/atom
compute eatoms all reduce sum c_eng
# ---- run minimization
reset_timestep 0
fix 1 all box/relax aniso 0.0 vmax 0.001
thermo 10
thermo_style custom step pe xhi xlo yhi ylo zhi xy xz yz press pxx pyy pzz pxy pxz pyz c_eatoms
min_style cg
minimize 1e-25 1e-25 5000 10000
  update every 1 steps, delay 0 steps, check yes
Step PotEng Xhi Xlo Yhi Ylo Zhi Xy Xz Yz Press Pxx Pyy Pzz Pxy Pxz Pyz c_eatoms
0     -10.5429       4.8791            0       4.8791            0       4.8791            0            0            0    259509.55    259509.55    259509.55    259509.55   -31.756705   -31.756705   -31.756705     -10.5429
Averages over the last 70 of 139 rows, steps 690 to 1378:
PotEng Xhi Xlo Yhi Ylo Zhi Xy Xz Yz Press Pxx Pyy Pzz Pxy Pxz Pyz c_eatoms
-19.2761 3.76912 1.10998 6.69572 -1.81662 4.6145 0 0 0 5768.93 -10084 16447.9 10942.9 -0.945414 3617.74 -3.68305 -19.2761
Loop time of 0.03738 on 1 procs for 1378 steps with 8 atoms

Minimization stats:
  Stopping criterion = energy tolerance
  Energy initial, next-to-last, final =
  Force two-norm initial, final = 32.5854 7.20586e-14
  Force max component initial, final = 18.8132 5.15042e-14
  Final line search alpha, max atom move = 1 5.15042e-14
  Iterations, force evaluations = 1378 1605

# ---- define output variables ----
variable natoms equal "count(all)"
variable tot_energy equal "c_eatoms"
variable a11 equal "xhi-xlo"
variable a22 equal "yhi-ylo"
variable a33 equal "zhi-zlo"
variable tilt_xy equal "xy"
variable tilt_xz equal "xz"
variable tilt_yz equal "yz"
variable tot_press equal "press"
variable press_xx equal "pxx"
variable press_yy equal "pyy"
variable press_zz equal "pzz"
variable press_xy equal "pxy"
variable press_xz equal "pxz"
variable press_yz equal "pyz"

# ---- output ----
print "pypospack:output_section:begin"
pypospack:output_section:begin
tot_energy = -19.625103901413
num_atoms = 8
a11 = 2.57353056673914
a22 = 8.40469625138478
a33 = 4.45748569642373
a12 = 0
a13 = 0
a23 = 0
tot_press = -5.52478877624308e-10
pxx = 2.67514469755474e-10
pyy = -1.47432759064374e-09
pzz = -4.50623511984652e-10
pxy = -1.93717374650516e-11
pxz = -8.69883258549696e-10
pyz = -2.64055230922429e-11
print "pypospack:output_section:done"
pypospack:output_section:done
print "pypospack:lammps_sim:done"
pypospack:lammps_sim:done
