LAMMPS (11 Aug 2017)
# ---- initialize simulations
clear
units metal
dimension 3
boundary p p p
atom_style atomic
atom_modify map array
# ---- create atoms
read_data /home/eragasa/repos/pypospack/examples/Ni__eam__born_exp_rose/preconditioning_3.5NN/rank_98/Ni_fcc.lmps_min_all/lammps.structure
  triclinic box = (0 0 0) to (3.5167 3.5167 3.5167) with tilt (0 -0 0)
  reading atoms ...
  4 atoms
# ---- define interatomic potential
include potential.mod
mass 1 58.6934

group Ni type 1
4 atoms in group Ni

pair_style eam/alloy
pair_coeff * * /home/eragasa/repos/pypospack/examples/Ni__eam__born_exp_rose/preconditioning_3.5NN/rank_98/Ni_fcc.lmps_min_all/Ni.eam.alloy Ni

neighbor 1.0 bin
neigh_modify every 1 delay 0 check yes
# ---- define settings
compute eng all pe/atom
compute eatoms all reduce sum c_eng
# ---- run minimization
reset_timestep 0
fix 1 all box/relax aniso 0.0 vmax 0.001
thermo 10
thermo_style custom step pe xhi xlo yhi ylo zhi xy xz yz press pxx pyy pzz pxy pxz pyz c_eatoms
min_style cg
minimize 1e-25 1e-25 5000 10000
  update every 1 steps, delay 0 steps, check yes
Step PotEng Xhi Xlo Yhi Ylo Zhi Xy Xz Yz Press Pxx Pyy Pzz Pxy Pxz Pyz c_eatoms
0   -17.808935       3.5167            0       3.5167            0       3.5167            0           -0            0    4507.2548    4507.2548    4507.2548    4507.2548 -2.5961395e-13 -2.7958425e-14 2.236674e-13   -17.808935
Averages over the last 122 of 243 rows, steps 1210 to 2416:
PotEng Xhi Xlo Yhi Ylo Zhi Xy Xz Yz Press Pxx Pyy Pzz Pxy Pxz Pyz c_eatoms
-18.768 4.43283 -0.916127 4.37452 -0.857823 6.29933 0 0 0 114.364 59.8649 59.6307 223.598 -1.05908 4.552e-13 -2.26126e-12 -18.768
Loop time of 0.0215812 on 1 procs for 2416 steps with 4 atoms

Minimization stats:
  Stopping criterion = energy tolerance
  Energy initial, next-to-last, final =
  Force two-norm initial, final = 0.211918 8.75136e-07
  Force max component initial, final = 0.122351 6.82289e-07
  Final line search alpha, max atom move = 1 6.82289e-07
  Iterations, force evaluations = 2416 3208

# ---- define output variables ----
variable natoms equal "count(all)"
variable tot_energy equal "c_eatoms"
variable a11 equal "xhi-xlo"
variable a22 equal "yhi-ylo"
variable a33 equal "zhi-zlo"
variable tilt_xy equal "xy"
variable tilt_xz equal "xz"
variable tilt_yz equal "yz"
variable tot_press equal "press"
variable press_xx equal "pxx"
variable press_yy equal "pyy"
variable press_zz equal "pzz"
variable press_xy equal "pxy"
variable press_xz equal "pxz"
variable press_yz equal "pyz"

# ---- output ----
print "pypospack:output_section:begin"
pypospack:output_section:begin
tot_energy = -18.7709643876183
num_atoms = 4
a11 = 5.80049746581641
a22 = 5.70485716475894
a33 = 10.0675090437036
a12 = 0
a13 = -0
a23 = 0
tot_press = 0.00162537755689338
pxx = 0.000601349230776248
pyy = 0.00532299806310813
pzz = -0.00104821462320423
pxy = -0.00132268615866434
pxz = 6.0347316062185e-18
pyz = -1.24241869120901e-15
print "pypospack:output_section:done"
pypospack:output_section:done
print "pypospack:lammps_sim:done"
pypospack:lammps_sim:done
