LAMMPS (10 Feb 2015)
# ---- initialize simulations
clear
units metal
dimension 3
boundary p p p
atom_style charge
atom_modify map array
# ---- create atoms
read_data /Users/eugeneragasa/pyflamestk_git/pypospack/tests/tests_integration/workflow/WorkflowLammpsThermalExpansion/MgO_NaCl_unit.npt.T1300/lammps.structure
  triclinic box = (0 0 0) to (4.2565 4.2565 4.2565) with tilt (0 0 0)
  reading atoms ...
  8 atoms
# ---- define interatomic potential
include potential.mod
mass 1 24.305
mass 2 15.999

group Mg type 1
4 atoms in group Mg
group O type 2
4 atoms in group O

set group Mg charge 1.7
  4 settings made for charge
set group O charge -1.7
  4 settings made for charge

variable R_cut equal 10.0

pair_style buck/coul/long 10
pair_coeff 1 1 0.0 0.5 0.0 10
pair_coeff 1 2 929.69 0.29909 0.0 10
pair_coeff 2 2 4870 0.2679 77 10

kspace_style pppm 1.0e-5

neighbor 1.0 bin
neigh_modify every 1 delay 0 check yes
# ---- define settings
compute eng all pe/atom
compute eatoms all reduce sum c_eng
# ---- run minimization
reset_timestep 0
fix 1 all box/relax iso 0.0 vmax 0.001
thermo 10
thermo_style custom step pe lx ly lz xy xz yz press pxx pyy pzz pxy pxz pyz c_eatoms
min_style cg
minimize 1e-25 1e-25 5000 10000
PPPM initialization ...
  G vector (1/distance) = 0.353152
  grid = 8 8 8
  stencil order = 5
  estimated absolute RMS force accuracy = 4.10333e-05
  estimated relative force accuracy = 2.84961e-06
  3d grid and FFT values/proc = 3375 512
  1 neighbor list requests
  update every 1 steps, delay 0 steps, check yes
Step PotEng Lx Ly Lz Xy Xz Yz Press Pxx Pyy Pzz Pxy Pxz Pyz eatoms
0   -119.82944       4.2565       4.2565       4.2565            0            0            0   -43102.631   -43102.631   -43102.631   -43102.631 -1.1410716e-10 2.0651384e-11 1.0044018e-10   -119.82944
Loop time of 0.229296 on 1 procs for 9 steps with 8 atoms

Minimization stats:
  Stopping criterion = linesearch alpha is zero
  Energy initial, next-to-last, final =
  Force two-norm initial, final = 6.22404 0.0696885
  Force max component initial, final = 6.22404 0.069669
  Final line search alpha, max atom move = 1.75215e-06 1.2207e-07
  Iterations, force evaluations = 9 35

Pair  time (%) = 0.119355 (52.0526)
Kspce time (%) = 0.0049839 (2.17356)
Neigh time (%) = 0 (0)
Comm  time (%) = 0.000645399 (0.28147)
Outpt time (%) = 0 (0)
Other time (%) = 0.104312 (45.4923)

unfix 1
# ---- define output variables ----
variable natoms equal "count(all)"
variable tot_energy equal "c_eatoms"
variable length_x equal "lx"
variable length_y equal "ly"
variable length_z equal "lz"
variable tilt_xy equal "xy"
variable tilt_xz equal "xz"
variable tilt_yz equal "yz"
variable tot_press equal "press"
variable press_xx equal "pxx"
variable press_yy equal "pyy"
variable press_zz equal "pzz"
variable press_xy equal "pxy"
variable press_xz equal "pxz"
variable press_yz equal "pyz"

# ---- output ----
print "pypospack:output_section:begin"
pypospack:output_section:begin
tot_energy = -119.854898204259
num_atoms = 8
xx = 4.222448
yy = 4.222448
zz = 4.222448
xy = 0
xz = 0
yz = 0
tot_press = -490.283556338482
pxx = -490.283556338668
pyy = -490.283556338614
pzz = -490.283556338163
pxy = -3.79271362347293e-11
pxz = -7.2182599384956e-11
pyz = 3.21304951944417e-11
print "pypospack:output_section:done"
pypospack:output_section:done
print "pypospack:lammps_sim:done"
pypospack:lammps_sim:done
#------------------------------------------------------------------------------
# RUN THERMOSTAT
# running using an NPT Nose-Hoover style thermostat
#------------------------------------------------------------------------------
variable tempdamp equal 0.1
variable pressdamp equal 1.0
# set initial velocities
velocity all create 1300 9986335 mom yes dist gaussian loop all
# fix for Nose-Hoover style thermostat
fix 20 all npt temp 1300 1300 0.1 aniso 0.0 0.0 1.0 drag 1.0 couple xyz
variable boxx equal lx
variable boxy equal ly
variable boxz equal lz
variable boxp equal press
variable boxt equal temp
# calculate averages every 10000 steps
reset_timestep 0
fix 21 all ave/time 10 10 100 v_boxx v_boxy v_boxz v_boxp v_boxt file lattice.out
thermo_style custom step temp pe ke etotal press lx ly lz press pxx pyy pzz pxy pxz pyz vol
thermo_modify flush yes
thermo 100
run 100000
PPPM initialization ...
  G vector (1/distance) = 0.353501
  grid = 8 8 8
  stencil order = 5
  estimated absolute RMS force accuracy = 4.03791e-05
  estimated relative force accuracy = 2.80417e-06
  3d grid and FFT values/proc = 3375 512
Step Temp PotEng KinEng TotEng Press Lx Ly Lz Press Pxx Pyy Pzz Pxy Pxz Pyz Volume
0         1300    -119.8549    1.1762673   -118.67863    16199.213     4.222448     4.222448     4.222448    16199.213    9019.1924    21286.107     18292.34    837.18132    2690.4521    5726.3575    75.282309
Averages over the last 501 of 1001 rows, steps 50000 to 100000:
Temp PotEng KinEng TotEng Press Lx Ly Lz Press Pxx Pyy Pzz Pxy Pxz Pyz Volume
1296.24 -118.623 1.17287 -117.45 -1809.49 4.27015 4.27015 4.27015 -1809.49 -867.458 -6279.46 1718.44 -1750.56 -2059.35 -1616.15 77.8636
Loop time of 222.09 on 1 procs for 100000 steps with 8 atoms

Pair  time (%) = 72.1362 (32.4807)
Kspce time (%) = 56.3665 (25.3801)
Neigh time (%) = 0.998761 (0.449711)
Comm  time (%) = 11.4777 (5.16806)
Outpt time (%) = 0.26034 (0.117223)
Other time (%) = 80.85 (36.4043)

unfix 20
unfix 21
print "seeds:9986335"
seeds:9986335
