LAMMPS (11 Aug 2017)
# ---- initialize simulations
clear
units metal
dimension 3
boundary p p p
atom_style atomic
atom_modify map array
# ---- create atoms
read_data /home/sullberg/repos/pypospack/examples/Ni__eam__born_exp_rose/01_preconditioning_3.5NN/rank_28/Ni_fcc_isf.lmps_min_sf/lammps.structure
  triclinic box = (0 0 0) to (2.4806 4.2965 28.3558) with tilt (0 0 0)
  reading atoms ...
  28 atoms
# ---- define interatomic potential
include potential.mod
mass 1 58.6934

group Ni type 1
28 atoms in group Ni

pair_style eam/alloy
pair_coeff * * /home/sullberg/repos/pypospack/examples/Ni__eam__born_exp_rose/01_preconditioning_3.5NN/rank_28/Ni_fcc_isf.lmps_min_sf/Ni.eam.alloy Ni

neighbor 1.0 bin
neigh_modify every 1 delay 0 check yes
# ---- define settings
compute eng all pe/atom
compute eatoms all reduce sum c_eng

# ---- run minimization
reset_timestep 0
thermo 100
thermo_style custom step pe lx ly lz xy xz yz press pxx pyy pzz pxy pxz pyz c_eatoms
fix 1 all box/relax aniso 0.0 vmax 0.001
min_style cg
minimize 1e-25 1e-25 5000 10000
  update every 1 steps, delay 0 steps, check yes
Step PotEng Lx Ly Lz Xy Xz Yz Press Pxx Pyy Pzz Pxy Pxz Pyz c_eatoms
0   -125.99503       2.4806       4.2965      28.3558            0            0            0    90.115462    76.080668    80.403871    113.86185 9.463433e-12 1.7325526e-12   -1.2430203   -125.99503
Averages over the last 26 of 51 rows, steps 2500 to 5000:
PotEng Lx Ly Lz Xy Xz Yz Press Pxx Pyy Pzz Pxy Pxz Pyz c_eatoms
-125.995 2.48059 4.29651 28.3566 0 0 0 2.09511 2.09502 2.095 2.09532 6.686e-12 -8.05576e-13 0.00313139 -125.995
Loop time of 4.8132 on 1 procs for 5000 steps with 28 atoms

Minimization stats:
  Stopping criterion = max force evaluations
  Energy initial, next-to-last, final =
  Force two-norm initial, final = 0.0301103 0.000684251
  Force max component initial, final = 0.0214774 0.000395084
  Final line search alpha, max atom move = 1 0.000395084
  Iterations, force evaluations = 5000 10000

unfix 1
fix 2 all setforce 0 0 NULL
min_style cg
minimize 1e-20 1e-20 1000 100000
Step PotEng Lx Ly Lz Xy Xz Yz Press Pxx Pyy Pzz Pxy Pxz Pyz c_eatoms
5000   -125.99503    2.4805917    4.2965109    28.356573            0            0            0    2.0943243    2.0942318    2.0942121     2.094529 -3.2681164e-11 -2.1105106e-11 0.0020416317   -125.99503
Loop time of 0.0127518 on 1 procs for 14 steps with 28 atoms

Minimization stats:
  Stopping criterion = energy tolerance
  Energy initial, next-to-last, final =
  Force two-norm initial, final = 7.56258e-07 4.70926e-14
  Force max component initial, final = 2.24517e-07 1.99285e-14
  Final line search alpha, max atom move = 1 1.99285e-14
  Iterations, force evaluations = 14 28

# ---- define output variables ----
variable natoms equal "count(all)"
variable tot_energy equal "c_eatoms"
variable a11 equal "xhi-xlo"
variable a22 equal "yhi-ylo"
variable a33 equal "zhi-zlo"
variable tilt_xy equal "xy"
variable tilt_xz equal "xz"
variable tilt_yz equal "yz"
variable tot_press equal "press"
variable press_xx equal "pxx"
variable press_yy equal "pyy"
variable press_zz equal "pzz"
variable press_xy equal "pxy"
variable press_xz equal "pxz"
variable press_yz equal "pyz"

# ---- output ----
print "pypospack:output_section:begin"
pypospack:output_section:begin
tot_energy = -125.995029452424
num_atoms = 28
a11 = 2.48059170407664
a22 = 4.29651090610614
a33 = 28.3565733793065
a12 = 0
a13 = 0
a23 = 0
tot_press = 2.09440864515599
pxx = 2.09431647806711
pyy = 2.09429683289727
pzz = 2.09461262450359
pxy = -4.68389145183386e-11
pxz = 1.15576789581948e-12
pyz = 0.00204163177055433
print "pypospack:output_section:done"
pypospack:output_section:done
print "pypospack:lammps_sim:done"
pypospack:lammps_sim:done
