LAMMPS (11 Aug 2017)
# ---- initialize simulations
clear
units metal
dimension 3
boundary p p p
atom_style atomic
atom_modify map array
# ---- create atoms
read_data /home/eragasa/repos/pypospack/examples/Ni__eam__born_exp_rose/preconditioning_3.5NN/rank_24/Ni_fcc.lmps_min_all/lammps.structure
  triclinic box = (0 0 0) to (3.5167 3.5167 3.5167) with tilt (0 -0 0)
  reading atoms ...
  4 atoms
# ---- define interatomic potential
include potential.mod
mass 1 58.6934

group Ni type 1
4 atoms in group Ni

pair_style eam/alloy
pair_coeff * * /home/eragasa/repos/pypospack/examples/Ni__eam__born_exp_rose/preconditioning_3.5NN/rank_24/Ni_fcc.lmps_min_all/Ni.eam.alloy Ni

neighbor 1.0 bin
neigh_modify every 1 delay 0 check yes
# ---- define settings
compute eng all pe/atom
compute eatoms all reduce sum c_eng
# ---- run minimization
reset_timestep 0
fix 1 all box/relax aniso 0.0 vmax 0.001
thermo 10
thermo_style custom step pe xhi xlo yhi ylo zhi xy xz yz press pxx pyy pzz pxy pxz pyz c_eatoms
min_style cg
minimize 1e-25 1e-25 5000 10000
  update every 1 steps, delay 0 steps, check yes
Step PotEng Xhi Xlo Yhi Ylo Zhi Xy Xz Yz Press Pxx Pyy Pzz Pxy Pxz Pyz c_eatoms
0   -17.859593       3.5167            0       3.5167            0       3.5167            0           -0            0    6332.0968    6332.0968    6332.0968    6332.0968 -2.3265404e-13 -4.0539717e-13 -4.0439865e-13   -17.859593
Averages over the last 133 of 265 rows, steps 1320 to 2635:
PotEng Xhi Xlo Yhi Ylo Zhi Xy Xz Yz Press Pxx Pyy Pzz Pxy Pxz Pyz c_eatoms
-18.8977 4.45607 -0.93937 4.45958 -0.942876 6.24642 0 0 0 9.17753 -2.19991 -2.33504 32.0675 0.626973 2.07024e-16 -1.17684e-14 -18.8977
Loop time of 0.0237761 on 1 procs for 2635 steps with 4 atoms

Minimization stats:
  Stopping criterion = linesearch alpha is zero
  Energy initial, next-to-last, final =
  Force two-norm initial, final = 0.297717 1.35794e-07
  Force max component initial, final = 0.171887 7.23705e-08
  Final line search alpha, max atom move = 0.5 3.61853e-08
  Iterations, force evaluations = 2635 3700

# ---- define output variables ----
variable natoms equal "count(all)"
variable tot_energy equal "c_eatoms"
variable a11 equal "xhi-xlo"
variable a22 equal "yhi-ylo"
variable a33 equal "zhi-zlo"
variable tilt_xy equal "xy"
variable tilt_xz equal "xz"
variable tilt_yz equal "yz"
variable tot_press equal "press"
variable press_xx equal "pxx"
variable press_yy equal "pyy"
variable press_zz equal "pzz"
variable press_xy equal "pxy"
variable press_xz equal "pxz"
variable press_yz equal "pyz"

# ---- output ----
print "pypospack:output_section:begin"
pypospack:output_section:begin
tot_energy = -18.8981099734837
num_atoms = 4
a11 = 5.79476034139904
a22 = 5.80079388694985
a33 = 9.62846523982624
a12 = 0
a13 = -0
a23 = 0
tot_press = -0.000335300605199447
pxx = -0.000530078258092473
pyy = -0.00059094105581329
pzz = 0.000115117498307423
pxy = -0.000426829095895277
pxz = -1.49335191202604e-15
pyz = -2.70993396379421e-19
print "pypospack:output_section:done"
pypospack:output_section:done
print "pypospack:lammps_sim:done"
pypospack:lammps_sim:done
