LAMMPS (11 Aug 2017)
# ---- initialize simulations
clear
units metal
dimension 3
boundary p p p
atom_style atomic
atom_modify map array
# ---- create atoms
read_data /home/sullberg/repos/pypospack/examples/Ni__eam__born_exp_rose/01_preconditioning_3.5NN/rank_14/Ni_fcc_100_unit.lmps_min_all/lammps.structure
  triclinic box = (0 0 0) to (3.5167 3.5167 3.5167) with tilt (0 -0 0)
  reading atoms ...
  4 atoms
# ---- define interatomic potential
include potential.mod
mass 1 58.6934

group Ni type 1
4 atoms in group Ni

pair_style eam/alloy
pair_coeff * * /home/sullberg/repos/pypospack/examples/Ni__eam__born_exp_rose/01_preconditioning_3.5NN/rank_14/Ni_fcc_100_unit.lmps_min_all/Ni.eam.alloy Ni

neighbor 1.0 bin
neigh_modify every 1 delay 0 check yes
# ---- define settings
compute eng all pe/atom
compute eatoms all reduce sum c_eng
# ---- run minimization
reset_timestep 0
fix 1 all box/relax aniso 0.0 vmax 0.001
thermo 10
thermo_style custom step pe xhi xlo yhi ylo zhi xy xz yz press pxx pyy pzz pxy pxz pyz c_eatoms
min_style cg
minimize 1e-25 1e-25 5000 10000
  update every 1 steps, delay 0 steps, check yes
Step PotEng Xhi Xlo Yhi Ylo Zhi Xy Xz Yz Press Pxx Pyy Pzz Pxy Pxz Pyz c_eatoms
0   -17.924709       3.5167            0       3.5167            0       3.5167            0           -0            0    10321.487    10321.487    10321.487    10321.487 1.6005903e-10 1.6085417e-10 1.6062678e-10   -17.924709
Averages over the last 251 of 501 rows, steps 2500 to 5000:
PotEng Xhi Xlo Yhi Ylo Zhi Xy Xz Yz Press Pxx Pyy Pzz Pxy Pxz Pyz c_eatoms
-19.2965 5.52067 -2.00397 5.5103 -1.9936 9.22566 0 0 0 19.794 3.95275 4.10398 51.3253 0.0160934 7.72454e-13 -1.00283e-13 -19.2965
Loop time of 0.105317 on 1 procs for 5000 steps with 4 atoms

Minimization stats:
  Stopping criterion = max iterations
  Energy initial, next-to-last, final =
  Force two-norm initial, final = 0.485287 0.00190886
  Force max component initial, final = 0.28018 0.00078103
  Final line search alpha, max atom move = 0.0556607 4.34726e-05
  Iterations, force evaluations = 5000 6396

# ---- define output variables ----
variable natoms equal "count(all)"
variable tot_energy equal "c_eatoms"
variable a11 equal "xhi-xlo"
variable a22 equal "yhi-ylo"
variable a33 equal "zhi-zlo"
variable tilt_xy equal "xy"
variable tilt_xz equal "xz"
variable tilt_yz equal "yz"
variable tot_press equal "press"
variable press_xx equal "pxx"
variable press_yy equal "pyy"
variable press_zz equal "pzz"
variable press_xy equal "pxy"
variable press_xz equal "pxz"
variable press_yz equal "pyz"

# ---- output ----
print "pypospack:output_section:begin"
pypospack:output_section:begin
tot_energy = -19.2990866719802
num_atoms = 4
a11 = 8.61699437038073
a22 = 8.60061974259413
a33 = 17.3001906303639
a12 = 0
a13 = -0
a23 = 0
tot_press = 1.26430327674924
pxx = 1.55913833800394
pyy = 1.47526706644054
pzz = 0.758504425803245
pxy = 0.351229372753751
pxz = 9.34831368339867e-15
pyz = -2.87900964887278e-15
print "pypospack:output_section:done"
pypospack:output_section:done
print "pypospack:lammps_sim:done"
pypospack:lammps_sim:done
