LAMMPS (10 Feb 2015)
# ---- initialize simulations
clear
units metal
dimension 3
boundary p p p
atom_style charge
atom_modify map array
# ---- create atoms
read_data /Users/eugeneragasa/pyflamestk_git/pypospack/tests/tests_integration/workflow/WorkflowLammpsThermalExpansion/param_4927/MgO_NaCl_unit.npt.T1000/lammps.structure
  triclinic box = (0 0 0) to (4.2565 4.2565 4.2565) with tilt (0 0 0)
  reading atoms ...
  8 atoms
# ---- define interatomic potential
include potential.mod
mass 1 24.305
mass 2 15.999

group Mg type 1
4 atoms in group Mg
group O type 2
4 atoms in group O

set group Mg charge 1.66679564584
  4 settings made for charge
set group O charge -1.66679564584
  4 settings made for charge

variable R_cut equal 10.0

pair_style buck/coul/long 10
pair_coeff 1 1 0.0 0.5 0.0 10
pair_coeff 1 2 1241.53975785 0.290586946924 0.0 10
pair_coeff 2 2 7336.97641517 0.111647641293 25.3936876208 10

kspace_style pppm 1.0e-5

neighbor 1.0 bin
neigh_modify every 1 delay 0 check yes
# ---- define settings
compute eng all pe/atom
compute eatoms all reduce sum c_eng
# ---- run minimization
reset_timestep 0
fix 1 all box/relax iso 0.0 vmax 0.001
thermo 10
thermo_style custom step pe lx ly lz xy xz yz press pxx pyy pzz pxy pxz pyz c_eatoms
min_style cg
minimize 1e-25 1e-25 5000 10000
PPPM initialization ...
  G vector (1/distance) = 0.352901
  grid = 8 8 8
  stencil order = 5
  estimated absolute RMS force accuracy = 3.98348e-05
  estimated relative force accuracy = 2.76637e-06
  3d grid and FFT values/proc = 3375 512
  1 neighbor list requests
  update every 1 steps, delay 0 steps, check yes
Step PotEng Lx Ly Lz Xy Xz Yz Press Pxx Pyy Pzz Pxy Pxz Pyz eatoms
0    -112.5899       4.2565       4.2565       4.2565            0            0            0    58061.201    58061.201    58061.201    58061.201 6.8070985e-11 -1.221979e-10 1.2952011e-11    -112.5899
Loop time of 0.010293 on 1 procs for 13 steps with 8 atoms

Minimization stats:
  Stopping criterion = linesearch alpha is zero
  Energy initial, next-to-last, final =
  Force two-norm initial, final = 8.38407 0.00186563
  Force max component initial, final = 8.38407 0.000962014
  Final line search alpha, max atom move = 0.00390625 3.75787e-06
  Iterations, force evaluations = 13 30

Pair  time (%) = 0.00285339 (27.7217)
Kspce time (%) = 0.00164247 (15.9571)
Neigh time (%) = 0 (0)
Comm  time (%) = 0.000347614 (3.37719)
Outpt time (%) = 1.09673e-05 (0.106551)
Other time (%) = 0.00543857 (52.8375)

unfix 1
# ---- define output variables ----
variable natoms equal "count(all)"
variable tot_energy equal "c_eatoms"
variable length_x equal "lx"
variable length_y equal "ly"
variable length_z equal "lz"
variable tilt_xy equal "xy"
variable tilt_xz equal "xz"
variable tilt_yz equal "yz"
variable tot_press equal "press"
variable press_xx equal "pxx"
variable press_yy equal "pyy"
variable press_zz equal "pzz"
variable press_xy equal "pxy"
variable press_xz equal "pxz"
variable press_yz equal "pyz"

# ---- output ----
print "pypospack:output_section:begin"
pypospack:output_section:begin
tot_energy = -112.63600324896
num_atoms = 8
xx = 4.30511307073731
yy = 4.30511307073731
zz = 4.30511307073731
xy = 0
xz = 0
yz = 0
tot_press = -6.51251387968517
pxx = -6.51251387980119
pyy = -6.51251387961014
pzz = -6.51251387964418
pxy = 2.48159019880152e-11
pxz = -1.15837732664817e-10
pyz = 3.05215812050655e-11
print "pypospack:output_section:done"
pypospack:output_section:done
print "pypospack:lammps_sim:done"
pypospack:lammps_sim:done
#------------------------------------------------------------------------------
# RUN THERMOSTAT
# running using an NPT Nose-Hoover style thermostat
#------------------------------------------------------------------------------
variable tempdamp equal 0.1
variable pressdamp equal 1.0
# set initial velocities
velocity all create 1000 4707365 mom yes dist gaussian loop all
# fix for Nose-Hoover style thermostat
fix 20 all npt temp 1000 1000 0.1 aniso 0.0 0.0 1.0 drag 1.0 couple xyz
variable boxx equal lx
variable boxy equal ly
variable boxz equal lz
variable boxp equal press
variable boxt equal temp
# calculate averages every 10000 steps
reset_timestep 0
fix 21 all ave/time 10 10 100 v_boxx v_boxy v_boxz v_boxp v_boxt file lattice.out
thermo_style custom step temp pe ke etotal press lx ly lz press pxx pyy pzz pxy pxz pyz vol
thermo_modify flush yes
thermo 100
run 100000
PPPM initialization ...
  G vector (1/distance) = 0.352409
  grid = 8 8 8
  stencil order = 5
  estimated absolute RMS force accuracy = 4.075e-05
  estimated relative force accuracy = 2.82993e-06
  3d grid and FFT values/proc = 3375 512
Step Temp PotEng KinEng TotEng Press Lx Ly Lz Press Pxx Pyy Pzz Pxy Pxz Pyz Volume
0         1000   -112.63601   0.90482102   -111.73119    12104.349    4.3051131    4.3051131    4.3051131    12104.349    6505.3608    14351.444    15456.242   -405.48691    1979.1078    5796.3544    79.790959
Averages over the last 501 of 1001 rows, steps 50000 to 100000:
Temp PotEng KinEng TotEng Press Lx Ly Lz Press Pxx Pyy Pzz Pxy Pxz Pyz Volume
998.734 -111.717 0.903675 -110.813 -1478.31 4.324 4.324 4.324 -1478.31 1055.91 -851.699 -4639.15 -574.076 256.569 -4914.47 80.846
Loop time of 22.2571 on 1 procs for 100000 steps with 8 atoms

Pair  time (%) = 7.19679 (32.3348)
Kspce time (%) = 5.31554 (23.8824)
Neigh time (%) = 0 (0)
Comm  time (%) = 1.05668 (4.74761)
Outpt time (%) = 0.0255313 (0.114711)
Other time (%) = 8.66255 (38.9204)

unfix 20
unfix 21
print "seeds:4707365"
seeds:4707365
