LAMMPS (10 Feb 2015)
# ---- initialize simulations
clear
units metal
dimension 3
boundary p p p
atom_style charge
atom_modify map array
# ---- create atoms
read_data /Users/eugeneragasa/pyflamestk_git/pypospack/tests/tests_integration/workflow/WorkflowLammpsThermalExpansion/param_2632/MgO_NaCl_unit.npt.T1400/lammps.structure
  triclinic box = (0 0 0) to (4.2565 4.2565 4.2565) with tilt (0 0 0)
  reading atoms ...
  8 atoms
# ---- define interatomic potential
include potential.mod
mass 1 24.305
mass 2 15.999

group Mg type 1
4 atoms in group Mg
group O type 2
4 atoms in group O

set group Mg charge 1.63285961235
  4 settings made for charge
set group O charge -1.63285961235
  4 settings made for charge

variable R_cut equal 10.0

pair_style buck/coul/long 10
pair_coeff 1 1 0.0 0.5 0.0 10
pair_coeff 1 2 1437.07173936 0.281984725072 0.0 10
pair_coeff 2 2 17907.6681412 0.158842179647 12.0518239093 10

kspace_style pppm 1.0e-5

neighbor 1.0 bin
neigh_modify every 1 delay 0 check yes
# ---- define settings
compute eng all pe/atom
compute eatoms all reduce sum c_eng
# ---- run minimization
reset_timestep 0
fix 1 all box/relax iso 0.0 vmax 0.001
thermo 10
thermo_style custom step pe lx ly lz xy xz yz press pxx pyy pzz pxy pxz pyz c_eatoms
min_style cg
minimize 1e-25 1e-25 5000 10000
PPPM initialization ...
  G vector (1/distance) = 0.352629
  grid = 8 8 8
  stencil order = 5
  estimated absolute RMS force accuracy = 3.86465e-05
  estimated relative force accuracy = 2.68385e-06
  3d grid and FFT values/proc = 3375 512
  1 neighbor list requests
  update every 1 steps, delay 0 steps, check yes
Step PotEng Lx Ly Lz Xy Xz Yz Press Pxx Pyy Pzz Pxy Pxz Pyz eatoms
0   -108.26668       4.2565       4.2565       4.2565            0            0            0     68174.25     68174.25     68174.25     68174.25 -1.8708973e-11 1.9918278e-11 -1.4539535e-10   -108.26668
Loop time of 0.0151021 on 1 procs for 14 steps with 8 atoms

Minimization stats:
  Stopping criterion = linesearch alpha is zero
  Energy initial, next-to-last, final =
  Force two-norm initial, final = 9.8444 0.23785
  Force max component initial, final = 9.8444 0.237844
  Final line search alpha, max atom move = 1.28309e-07 3.05176e-08
  Iterations, force evaluations = 14 44

Pair  time (%) = 0.00405931 (26.8791)
Kspce time (%) = 0.0023644 (15.656)
Neigh time (%) = 0 (0)
Comm  time (%) = 0.00047636 (3.15426)
Outpt time (%) = 1.5974e-05 (0.105773)
Other time (%) = 0.0081861 (54.2049)

unfix 1
# ---- define output variables ----
variable natoms equal "count(all)"
variable tot_energy equal "c_eatoms"
variable length_x equal "lx"
variable length_y equal "ly"
variable length_z equal "lz"
variable tilt_xy equal "xy"
variable tilt_xz equal "xz"
variable tilt_yz equal "yz"
variable tot_press equal "press"
variable press_xx equal "pxx"
variable press_yy equal "pyy"
variable press_zz equal "pzz"
variable press_xy equal "pxy"
variable press_xz equal "pxz"
variable press_yz equal "pyz"

# ---- output ----
print "pypospack:output_section:begin"
pypospack:output_section:begin
tot_energy = -108.330639250266
num_atoms = 8
xx = 4.3118345
yy = 4.3118345
zz = 4.3118345
xy = 0
xz = 0
yz = 0
tot_press = 1605.10951764203
pxx = 1605.10951764176
pyy = 1605.10951764198
pzz = 1605.10951764233
pxy = -5.96944985898881e-11
pxz = -6.79821282837662e-11
pyz = 4.92531279854496e-12
print "pypospack:output_section:done"
pypospack:output_section:done
print "pypospack:lammps_sim:done"
pypospack:lammps_sim:done
#------------------------------------------------------------------------------
# RUN THERMOSTAT
# running using an NPT Nose-Hoover style thermostat
#------------------------------------------------------------------------------
variable tempdamp equal 0.1
variable pressdamp equal 1.0
# set initial velocities
velocity all create 1400 8590425 mom yes dist gaussian loop all
# fix for Nose-Hoover style thermostat
fix 20 all npt temp 1400 1400 0.1 aniso 0.0 0.0 1.0 drag 1.0 couple xyz
variable boxx equal lx
variable boxy equal ly
variable boxz equal lz
variable boxp equal press
variable boxt equal temp
# calculate averages every 10000 steps
reset_timestep 0
fix 21 all ave/time 10 10 100 v_boxx v_boxy v_boxz v_boxp v_boxt file lattice.out
thermo_style custom step temp pe ke etotal press lx ly lz press pxx pyy pzz pxy pxz pyz vol
thermo_modify flush yes
thermo 100
run 100000
PPPM initialization ...
  G vector (1/distance) = 0.352078
  grid = 8 8 8
  stencil order = 5
  estimated absolute RMS force accuracy = 3.96373e-05
  estimated relative force accuracy = 2.75266e-06
  3d grid and FFT values/proc = 3375 512
Step Temp PotEng KinEng TotEng Press Lx Ly Lz Press Pxx Pyy Pzz Pxy Pxz Pyz Volume
0         1400   -108.33065    1.2667494    -107.0639    18481.656    4.3118345    4.3118345    4.3118345    18481.656    19090.561    28600.843    7753.5641    885.27953    3563.0886   -1375.1729    80.165268
Averages over the last 501 of 1001 rows, steps 50000 to 100000:
Temp PotEng KinEng TotEng Press Lx Ly Lz Press Pxx Pyy Pzz Pxy Pxz Pyz Volume
1404.33 -107.031 1.27066 -105.761 -2332.86 4.36082 4.36082 4.36082 -2332.86 -2465.58 -984.446 -3548.56 4287.27 667.191 1451.85 82.93
Loop time of 21.4218 on 1 procs for 100000 steps with 8 atoms

Pair  time (%) = 6.55755 (30.6116)
Kspce time (%) = 5.24413 (24.4803)
Neigh time (%) = 0.109937 (0.513201)
Comm  time (%) = 0.974497 (4.54909)
Outpt time (%) = 0.0227132 (0.106028)
Other time (%) = 8.51298 (39.7398)

unfix 20
unfix 21
print "seeds:8590425"
seeds:8590425
