LAMMPS (10 Feb 2015)
# ---- initialize simulations
clear
units metal
dimension 3
boundary p p p
atom_style atomic
atom_modify map array
# ---- create atoms
read_data /Users/eugeneragasa/repos/pypospack/dev/cluster_sampling/dev__cluster_sampling/rank_0/Ni_dia.lmps_min_all/lammps.structure
  triclinic box = (0 0 0) to (4.8791 4.8791 4.8791) with tilt (0 0 0)
  reading atoms ...
  8 atoms
# ---- define interatomic potential
include potential.mod
mass 1 58.6934

group Ni type 1
8 atoms in group Ni

pair_style eam/alloy
pair_coeff * * /Users/eugeneragasa/repos/pypospack/dev/cluster_sampling/dev__cluster_sampling/rank_0/Ni_dia.lmps_min_all/Ni.eam.alloy Ni

neighbor 1.0 bin
neigh_modify every 1 delay 0 check yes
# ---- define settings
compute eng all pe/atom
compute eatoms all reduce sum c_eng
# ---- run minimization
reset_timestep 0
fix 1 all box/relax aniso 0.0 vmax 0.001
thermo 10
thermo_style custom step pe xhi xlo yhi ylo zhi xy xz yz press pxx pyy pzz pxy pxz pyz c_eatoms
min_style cg
minimize 1e-25 1e-25 5000 10000
  1 neighbor list requests
  update every 1 steps, delay 0 steps, check yes
Step PotEng Xhi Xlo Yhi Ylo Zhi Xy Xz Yz Press Pxx Pyy Pzz Pxy Pxz Pyz eatoms
0   -26.587221       4.8791            0       4.8791            0       4.8791            0            0            0    99327.138    99327.138    99327.138    99327.138   -16.310677   -16.310677   -16.310677   -26.587221
Averages over the last 68 of 136 rows, steps 680 to 1342:
PotEng Xhi Xlo Yhi Ylo Zhi Xy Xz Yz Press Pxx Pyy Pzz Pxy Pxz Pyz eatoms
-33.5157 3.69778 1.18132 6.61965 -1.74055 4.75304 0 0 0 2893.35 79.2352 12570.4 -3969.63 -78.8201 5048.39 -767.177 -33.5157
Loop time of 0.0306699 on 1 procs for 1342 steps with 8 atoms

Minimization stats:
  Stopping criterion = energy tolerance
  Energy initial, next-to-last, final =
  Force two-norm initial, final = 12.472 2.4187e-07
  Force max component initial, final = 7.20073 2.02543e-07
  Final line search alpha, max atom move = 1 2.02543e-07
  Iterations, force evaluations = 1342 1564

Pair  time (%) = 0.0179737 (58.6035)
Neigh time (%) = 0.000200748 (0.654545)
Comm  time (%) = 0.00252581 (8.23545)
Outpt time (%) = 0.00123668 (4.03221)
Other time (%) = 0.00873303 (28.4743)

# ---- define output variables ----
variable natoms equal "count(all)"
variable tot_energy equal "c_eatoms"
variable a11 equal "xhi-xlo"
variable a22 equal "yhi-ylo"
variable a33 equal "zhi-zlo"
variable tilt_xy equal "xy"
variable tilt_xz equal "xz"
variable tilt_yz equal "yz"
variable tot_press equal "press"
variable press_xx equal "pxx"
variable press_yy equal "pyy"
variable press_zz equal "pzz"
variable press_xy equal "pxy"
variable press_xz equal "pxz"
variable press_yz equal "pyz"

# ---- output ----
print "pypospack:output_section:begin"
pypospack:output_section:begin
tot_energy = -33.6917906474413
num_atoms = 8
a11 = 2.57822349597295
a22 = 8.41445927739106
a33 = 4.46561417760819
a12 = 0
a13 = 0
a23 = 0
tot_press = -0.0011448828647162
pxx = 0.000532089809092318
pyy = -0.000900961055438214
pzz = -0.00306577734780271
pxy = 6.33449079610529e-11
pxz = -0.00192642215116697
pyz = 4.5213575609882e-11
print "pypospack:output_section:done"
pypospack:output_section:done
print "pypospack:lammps_sim:done"
pypospack:lammps_sim:done
