LAMMPS (11 Aug 2017)
# ---- initialize simulations
clear
units metal
dimension 3
boundary p p p
atom_style atomic
atom_modify map array
# ---- create atoms
read_data /home/sullberg/repos/pypospack/examples/Ni__eam__born_exp_rose/01_preconditioning_3.5NN/rank_46/Ni_fcc_vac.lmps_min_pos/lammps.structure
  triclinic box = (0 0 0) to (27.6059 27.6059 27.6059) with tilt (0 -0 -0)
  reading atoms ...
  107 atoms
# ---- define interatomic potential
include potential.mod
mass 1 58.6934

group Ni type 1
107 atoms in group Ni

pair_style eam/alloy
pair_coeff * * /home/sullberg/repos/pypospack/examples/Ni__eam__born_exp_rose/01_preconditioning_3.5NN/rank_46/Ni_fcc_vac.lmps_min_pos/Ni.eam.alloy Ni

neighbor 1.0 bin
neigh_modify every 1 delay 0 check yes
# ---- define settings
compute eng all pe/atom
compute eatoms all reduce sum c_eng

# ---- run minimization
reset_timestep 0
thermo 1
thermo_style custom step pe lx ly lz xy xz yz press pxx pyy pzz pxy pxz pyz c_eatoms
min_style cg
minimize 1e-20 1e-20 1000 100000
  update every 1 steps, delay 0 steps, check yes
Step PotEng Lx Ly Lz Xy Xz Yz Press Pxx Pyy Pzz Pxy Pxz Pyz c_eatoms
0   -10.082786      27.6059      27.6059      27.6059            0           -0           -0   -323.09669   -323.09669   -323.09669   -323.09669 -1.175037e-11 -1.1708623e-11 -1.1639926e-11   -10.082786
Averages over the last 501 of 1001 rows, steps 500 to 1000:
PotEng Lx Ly Lz Xy Xz Yz Press Pxx Pyy Pzz Pxy Pxz Pyz c_eatoms
-601.456 27.6059 27.6059 27.6059 0 0 0 33.1258 31.6238 33.6765 34.0771 -0.51676 -1.89526 -0.307284 -601.456
Loop time of 0.551938 on 1 procs for 1000 steps with 107 atoms

Minimization stats:
  Stopping criterion = max iterations
  Energy initial, next-to-last, final =
  Force two-norm initial, final = 0.0106207 0.0556533
  Force max component initial, final = 0.00216846 0.0242773
  Final line search alpha, max atom move = 0.620783 0.015071
  Iterations, force evaluations = 1000 1664

# ---- define output variables ----
variable natoms equal "count(all)"
variable tot_energy equal "c_eatoms"
variable a11 equal "xhi-xlo"
variable a22 equal "yhi-ylo"
variable a33 equal "zhi-zlo"
variable tilt_xy equal "xy"
variable tilt_xz equal "xz"
variable tilt_yz equal "yz"
variable tot_press equal "press"
variable press_xx equal "pxx"
variable press_yy equal "pyy"
variable press_zz equal "pzz"
variable press_xy equal "pxy"
variable press_xz equal "pxz"
variable press_yz equal "pyz"

# ---- output ----
print "pypospack:output_section:begin"
pypospack:output_section:begin
tot_energy = -601.546206560278
num_atoms = 107
a11 = 27.6059
a22 = 27.6059
a33 = 27.6059
a12 = 0
a13 = -0
a23 = -0
tot_press = 22.7771662243056
pxx = 22.3716622904104
pyy = 23.2854190534681
pzz = 22.6744173290385
pxy = -0.588173332359454
pxz = -0.289955733601237
pyz = 0.359029796806962
print "pypospack:output_section:done"
pypospack:output_section:done
print "pypospack:lammps_sim:done"
pypospack:lammps_sim:done
