LAMMPS (10 Feb 2015)
# ---- initialize simulations
clear
units metal
dimension 3
boundary p p p
atom_style charge
atom_modify map array
# ---- create atoms
read_data /Users/eugeneragasa/pyflamestk_git/pypospack/tests/tests_integration/workflow/WorkflowLammpsThermalExpansion/param_5262/MgO_NaCl_unit.npt.T1700/lammps.structure
  triclinic box = (0 0 0) to (4.2565 4.2565 4.2565) with tilt (0 0 0)
  reading atoms ...
  8 atoms
# ---- define interatomic potential
include potential.mod
mass 1 24.305
mass 2 15.999

group Mg type 1
4 atoms in group Mg
group O type 2
4 atoms in group O

set group Mg charge 1.695400086
  4 settings made for charge
set group O charge -1.695400086
  4 settings made for charge

variable R_cut equal 10.0

pair_style buck/coul/long 10
pair_coeff 1 1 0.0 0.5 0.0 10
pair_coeff 1 2 1303.37543516 0.290482854228 0.0 10
pair_coeff 2 2 9936.88636401 0.22003654812 26.9596347598 10

kspace_style pppm 1.0e-5

neighbor 1.0 bin
neigh_modify every 1 delay 0 check yes
# ---- define settings
compute eng all pe/atom
compute eatoms all reduce sum c_eng
# ---- run minimization
reset_timestep 0
fix 1 all box/relax iso 0.0 vmax 0.001
thermo 10
thermo_style custom step pe lx ly lz xy xz yz press pxx pyy pzz pxy pxz pyz c_eatoms
min_style cg
minimize 1e-25 1e-25 5000 10000
PPPM initialization ...
  G vector (1/distance) = 0.353118
  grid = 8 8 8
  stencil order = 5
  estimated absolute RMS force accuracy = 4.08652e-05
  estimated relative force accuracy = 2.83793e-06
  3d grid and FFT values/proc = 3375 512
  1 neighbor list requests
  update every 1 steps, delay 0 steps, check yes
Step PotEng Lx Ly Lz Xy Xz Yz Press Pxx Pyy Pzz Pxy Pxz Pyz eatoms
0   -115.99413       4.2565       4.2565       4.2565            0            0            0    97842.713    97842.713    97842.713    97842.713 -3.9648682e-11 -1.4130262e-10 -2.4072873e-11   -115.99413
Loop time of 0.014123 on 1 procs for 22 steps with 8 atoms

Minimization stats:
  Stopping criterion = linesearch alpha is zero
  Energy initial, next-to-last, final =
  Force two-norm initial, final = 14.1285 3.9258e-05
  Force max component initial, final = 14.1285 8.20487e-06
  Final line search alpha, max atom move = 0.5 4.10243e-06
  Iterations, force evaluations = 22 41

Pair  time (%) = 0.00370288 (26.2189)
Kspce time (%) = 0.00228667 (16.1912)
Neigh time (%) = 0 (0)
Comm  time (%) = 0.000420094 (2.97454)
Outpt time (%) = 2.7895e-05 (0.197515)
Other time (%) = 0.00768542 (54.4179)

unfix 1
# ---- define output variables ----
variable natoms equal "count(all)"
variable tot_energy equal "c_eatoms"
variable length_x equal "lx"
variable length_y equal "ly"
variable length_z equal "lz"
variable tilt_xy equal "xy"
variable tilt_xz equal "xz"
variable tilt_yz equal "yz"
variable tot_press equal "press"
variable press_xx equal "pxx"
variable press_yy equal "pyy"
variable press_zz equal "pzz"
variable press_xy equal "pxy"
variable press_xz equal "pxz"
variable press_yz equal "pyz"

# ---- output ----
print "pypospack:output_section:begin"
pypospack:output_section:begin
tot_energy = -116.114943197766
num_atoms = 8
xx = 4.33200077919323
yy = 4.33200077919323
zz = 4.33200077919323
xy = 0
xz = 0
yz = 0
tot_press = 0.0225004262556315
pxx = 0.0225004265502418
pyy = 0.0225004253807009
pzz = 0.0225004268359518
pxy = -1.50114228566484e-10
pxz = -9.5142158828828e-11
pyz = 1.46309599907844e-10
print "pypospack:output_section:done"
pypospack:output_section:done
print "pypospack:lammps_sim:done"
pypospack:lammps_sim:done
#------------------------------------------------------------------------------
# RUN THERMOSTAT
# running using an NPT Nose-Hoover style thermostat
#------------------------------------------------------------------------------
variable tempdamp equal 0.1
variable pressdamp equal 1.0
# set initial velocities
velocity all create 1700 2741988 mom yes dist gaussian loop all
# fix for Nose-Hoover style thermostat
fix 20 all npt temp 1700 1700 0.1 aniso 0.0 0.0 1.0 drag 1.0 couple xyz
variable boxx equal lx
variable boxy equal ly
variable boxz equal lz
variable boxp equal press
variable boxt equal temp
# calculate averages every 10000 steps
reset_timestep 0
fix 21 all ave/time 10 10 100 v_boxx v_boxy v_boxz v_boxp v_boxt file lattice.out
thermo_style custom step temp pe ke etotal press lx ly lz press pxx pyy pzz pxy pxz pyz vol
thermo_modify flush yes
thermo 100
run 100000
PPPM initialization ...
  G vector (1/distance) = 0.352343
  grid = 8 8 8
  stencil order = 5
  estimated absolute RMS force accuracy = 4.23631e-05
  estimated relative force accuracy = 2.94196e-06
  3d grid and FFT values/proc = 3375 512
Step Temp PotEng KinEng TotEng Press Lx Ly Lz Press Pxx Pyy Pzz Pxy Pxz Pyz Volume
0         1700   -116.11495    1.5381957   -114.57676    20207.943    4.3320008    4.3320008    4.3320008    20207.943    11135.074    24989.443    24499.311    8559.0327    2737.5212    12064.734    81.295326
Averages over the last 501 of 1001 rows, steps 50000 to 100000:
Temp PotEng KinEng TotEng Press Lx Ly Lz Press Pxx Pyy Pzz Pxy Pxz Pyz Volume
1686.23 -114.507 1.52574 -112.981 -2369.03 4.3767 4.3767 4.3767 -2369.03 -7700.62 -5546.32 6139.84 -10354.4 2753.91 -720.834 83.8399
Loop time of 21.3202 on 1 procs for 100000 steps with 8 atoms

Pair  time (%) = 6.35488 (29.8068)
Kspce time (%) = 5.25838 (24.6638)
Neigh time (%) = 0.196957 (0.923806)
Comm  time (%) = 0.910404 (4.27015)
Outpt time (%) = 0.024076 (0.112926)
Other time (%) = 8.57551 (40.2224)

unfix 20
unfix 21
print "seeds:2741988"
seeds:2741988
