LAMMPS (11 Aug 2017)
# ---- initialize simulations
clear
units metal
dimension 3
boundary p p p
atom_style atomic
atom_modify map array
# ---- create atoms
read_data /home/sullberg/repos/pypospack/examples/Ni__eam__born_exp_rose/01_preconditioning_3.5NN/rank_28/Ni_fcc_111_unit.lmps_min_all/lammps.structure
  triclinic box = (0 0 0) to (2.4819 4.2987 6.0783) with tilt (0 0 0)
  reading atoms ...
  6 atoms
# ---- define interatomic potential
include potential.mod
mass 1 58.6934

group Ni type 1
6 atoms in group Ni

pair_style eam/alloy
pair_coeff * * /home/sullberg/repos/pypospack/examples/Ni__eam__born_exp_rose/01_preconditioning_3.5NN/rank_28/Ni_fcc_111_unit.lmps_min_all/Ni.eam.alloy Ni

neighbor 1.0 bin
neigh_modify every 1 delay 0 check yes
# ---- define settings
compute eng all pe/atom
compute eatoms all reduce sum c_eng
# ---- run minimization
reset_timestep 0
fix 1 all box/relax aniso 0.0 vmax 0.001
thermo 10
thermo_style custom step pe xhi xlo yhi ylo zhi xy xz yz press pxx pyy pzz pxy pxz pyz c_eatoms
min_style cg
minimize 1e-25 1e-25 5000 10000
  update every 1 steps, delay 0 steps, check yes
Step PotEng Xhi Xlo Yhi Ylo Zhi Xy Xz Yz Press Pxx Pyy Pzz Pxy Pxz Pyz c_eatoms
0    -26.99896       2.4819            0       4.2987            0       6.0783            0            0            0   -2266.8899   -2347.6528   -2331.0166   -2122.0002 -0.0016291315 -0.00060865086   -4.4003914    -26.99896
Averages over the last 251 of 501 rows, steps 2500 to 5000:
PotEng Xhi Xlo Yhi Ylo Zhi Xy Xz Yz Press Pxx Pyy Pzz Pxy Pxz Pyz c_eatoms
-26.999 2.48126 0.000644242 4.29762 0.00107741 6.07727 0 0 0 9.90287 9.90305 9.90301 9.90254 3.34656e-11 -1.42758e-11 9.5553e-06 -26.999
Loop time of 5.97141 on 1 procs for 5000 steps with 6 atoms

Minimization stats:
  Stopping criterion = max force evaluations
  Energy initial, next-to-last, final =
  Force two-norm initial, final = 0.159087 0.000693619
  Force max component initial, final = 0.0950226 0.000400495
  Final line search alpha, max atom move = 1 0.000400495
  Iterations, force evaluations = 5000 10000

# ---- define output variables ----
variable natoms equal "count(all)"
variable tot_energy equal "c_eatoms"
variable a11 equal "xhi-xlo"
variable a22 equal "yhi-ylo"
variable a33 equal "zhi-zlo"
variable tilt_xy equal "xy"
variable tilt_xz equal "xz"
variable tilt_yz equal "yz"
variable tot_press equal "press"
variable press_xx equal "pxx"
variable press_yy equal "pyy"
variable press_zz equal "pzz"
variable press_xy equal "pxy"
variable press_xz equal "pxz"
variable press_yz equal "pyz"

# ---- output ----
print "pypospack:output_section:begin"
pypospack:output_section:begin
tot_energy = -26.9990211675811
num_atoms = 6
a11 = 2.48061151688573
a22 = 4.2965451812529
a33 = 6.0762324688842
a12 = 0
a13 = 0
a23 = 0
tot_press = 9.90286645211797
pxx = 9.90304816015856
pyy = 9.90301201523258
pzz = 9.90253918096277
pxy = 4.91284642398554e-11
pxz = -1.63761826872924e-11
pyz = 9.55510225819096e-06
print "pypospack:output_section:done"
pypospack:output_section:done
print "pypospack:lammps_sim:done"
pypospack:lammps_sim:done
