LAMMPS (10 Feb 2015)
# ---- initialize simulations
clear
units metal
dimension 3
boundary p p p
atom_style charge
atom_modify map array
# ---- create atoms
read_data /Users/eugeneragasa/pyflamestk_git/pypospack/tests/tests_integration/workflow/WorkflowLammpsThermalExpansion/param_9544/MgO_NaCl_unit.npt.T200/lammps.structure
  triclinic box = (0 0 0) to (4.2565 4.2565 4.2565) with tilt (0 0 0)
  reading atoms ...
  8 atoms
# ---- define interatomic potential
include potential.mod
mass 1 24.305
mass 2 15.999

group Mg type 1
4 atoms in group Mg
group O type 2
4 atoms in group O

set group Mg charge 1.64252902328
  4 settings made for charge
set group O charge -1.64252902328
  4 settings made for charge

variable R_cut equal 10.0

pair_style buck/coul/long 10
pair_coeff 1 1 0.0 0.5 0.0 10
pair_coeff 1 2 1425.65456865 0.277130619093 0.0 10
pair_coeff 2 2 8710.58674493 0.211543782712 -4.62088168449 10

kspace_style pppm 1.0e-5

neighbor 1.0 bin
neigh_modify every 1 delay 0 check yes
# ---- define settings
compute eng all pe/atom
compute eatoms all reduce sum c_eng
# ---- run minimization
reset_timestep 0
fix 1 all box/relax iso 0.0 vmax 0.001
thermo 10
thermo_style custom step pe lx ly lz xy xz yz press pxx pyy pzz pxy pxz pyz c_eatoms
min_style cg
minimize 1e-25 1e-25 5000 10000
PPPM initialization ...
  G vector (1/distance) = 0.352708
  grid = 8 8 8
  stencil order = 5
  estimated absolute RMS force accuracy = 3.89813e-05
  estimated relative force accuracy = 2.7071e-06
  3d grid and FFT values/proc = 3375 512
  1 neighbor list requests
  update every 1 steps, delay 0 steps, check yes
Step PotEng Lx Ly Lz Xy Xz Yz Press Pxx Pyy Pzz Pxy Pxz Pyz eatoms
0   -111.38871       4.2565       4.2565       4.2565            0            0            0   -14022.103   -14022.103   -14022.103   -14022.103 -1.0617953e-11 -7.0203049e-11 5.2505523e-12   -111.38871
Loop time of 0.017735 on 1 procs for 6 steps with 8 atoms

Minimization stats:
  Stopping criterion = linesearch alpha is zero
  Energy initial, next-to-last, final =
  Force two-norm initial, final = 2.0248 0.00171153
  Force max component initial, final = 2.0248 0.00170464
  Final line search alpha, max atom move = 0.00229153 3.90625e-06
  Iterations, force evaluations = 6 44

Pair  time (%) = 0.00487304 (27.4769)
Kspce time (%) = 0.00275302 (15.5231)
Neigh time (%) = 0 (0)
Comm  time (%) = 0.000535727 (3.02073)
Outpt time (%) = 0 (0)
Other time (%) = 0.00957322 (53.9792)

unfix 1
# ---- define output variables ----
variable natoms equal "count(all)"
variable tot_energy equal "c_eatoms"
variable length_x equal "lx"
variable length_y equal "ly"
variable length_z equal "lz"
variable tilt_xy equal "xy"
variable tilt_xz equal "xz"
variable tilt_yz equal "yz"
variable tot_press equal "press"
variable press_xx equal "pxx"
variable press_yy equal "pyy"
variable press_zz equal "pzz"
variable press_xy equal "pxy"
variable press_xz equal "pxz"
variable press_yz equal "pyz"

# ---- output ----
print "pypospack:output_section:begin"
pypospack:output_section:begin
tot_energy = -111.391500014071
num_atoms = 8
xx = 4.24480566540602
yy = 4.24480566540602
zz = 4.24480566540602
xy = 0
xz = 0
yz = 0
tot_press = 11.8701047091937
pxx = 11.8701047092997
pyy = 11.8701047087814
pzz = 11.8701047094999
pxy = -3.20239539923879e-10
pxz = 4.8994550277695e-11
pyz = 2.27578662531736e-10
print "pypospack:output_section:done"
pypospack:output_section:done
print "pypospack:lammps_sim:done"
pypospack:lammps_sim:done
#------------------------------------------------------------------------------
# RUN THERMOSTAT
# running using an NPT Nose-Hoover style thermostat
#------------------------------------------------------------------------------
variable tempdamp equal 0.1
variable pressdamp equal 1.0
# set initial velocities
velocity all create 200 193193 mom yes dist gaussian loop all
# fix for Nose-Hoover style thermostat
fix 20 all npt temp 200 200 0.1 aniso 0.0 0.0 1.0 drag 1.0 couple xyz
variable boxx equal lx
variable boxy equal ly
variable boxz equal lz
variable boxp equal press
variable boxt equal temp
# calculate averages every 10000 steps
reset_timestep 0
fix 21 all ave/time 10 10 100 v_boxx v_boxy v_boxz v_boxp v_boxt file lattice.out
thermo_style custom step temp pe ke etotal press lx ly lz press pxx pyy pzz pxy pxz pyz vol
thermo_modify flush yes
thermo 100
run 100000
PPPM initialization ...
  G vector (1/distance) = 0.352825
  grid = 8 8 8
  stencil order = 5
  estimated absolute RMS force accuracy = 3.87738e-05
  estimated relative force accuracy = 2.69269e-06
  3d grid and FFT values/proc = 3375 512
Step Temp PotEng KinEng TotEng Press Lx Ly Lz Press Pxx Pyy Pzz Pxy Pxz Pyz Volume
0          200    -111.3915    0.1809642   -111.21054    2539.1826    4.2448057    4.2448057    4.2448057    2539.1826    4236.7545    1545.9226    1834.8706    132.94074     1892.449    473.62632    76.484501
Averages over the last 501 of 1001 rows, steps 50000 to 100000:
Temp PotEng KinEng TotEng Press Lx Ly Lz Press Pxx Pyy Pzz Pxy Pxz Pyz Volume
199.864 -111.21 0.180841 -111.029 -308.443 4.25464 4.25464 4.25464 -308.443 -3204.65 -706.506 2985.83 228.178 -170.123 -63.2753 77.0173
Loop time of 22.3499 on 1 procs for 100000 steps with 8 atoms

Pair  time (%) = 7.3297 (32.7952)
Kspce time (%) = 5.30233 (23.7242)
Neigh time (%) = 0 (0)
Comm  time (%) = 1.0622 (4.75257)
Outpt time (%) = 0.0265765 (0.118911)
Other time (%) = 8.62913 (38.6092)

unfix 20
unfix 21
print "seeds:193193"
seeds:193193
