LAMMPS (10 Feb 2015)
# ---- initialize simulations
clear
units metal
dimension 3
boundary p p p
atom_style charge
atom_modify map array
# ---- create atoms
read_data /Users/eugeneragasa/pyflamestk_git/pypospack/tests/tests_integration/workflow/WorkflowLammpsThermalExpansion/param_9837/MgO_NaCl_unit.npt.T600/lammps.structure
  triclinic box = (0 0 0) to (4.2565 4.2565 4.2565) with tilt (0 0 0)
  reading atoms ...
  8 atoms
# ---- define interatomic potential
include potential.mod
mass 1 24.305
mass 2 15.999

group Mg type 1
4 atoms in group Mg
group O type 2
4 atoms in group O

set group Mg charge 1.66768155913
  4 settings made for charge
set group O charge -1.66768155913
  4 settings made for charge

variable R_cut equal 10.0

pair_style buck/coul/long 10
pair_coeff 1 1 0.0 0.5 0.0 10
pair_coeff 1 2 1248.0823356 0.293822485762 0.0 10
pair_coeff 2 2 31778.9957117 0.212502502632 34.6036277069 10

kspace_style pppm 1.0e-5

neighbor 1.0 bin
neigh_modify every 1 delay 0 check yes
# ---- define settings
compute eng all pe/atom
compute eatoms all reduce sum c_eng
# ---- run minimization
reset_timestep 0
fix 1 all box/relax iso 0.0 vmax 0.001
thermo 10
thermo_style custom step pe lx ly lz xy xz yz press pxx pyy pzz pxy pxz pyz c_eatoms
min_style cg
minimize 1e-25 1e-25 5000 10000
PPPM initialization ...
  G vector (1/distance) = 0.352908
  grid = 8 8 8
  stencil order = 5
  estimated absolute RMS force accuracy = 3.98663e-05
  estimated relative force accuracy = 2.76856e-06
  3d grid and FFT values/proc = 3375 512
  1 neighbor list requests
  update every 1 steps, delay 0 steps, check yes
Step PotEng Lx Ly Lz Xy Xz Yz Press Pxx Pyy Pzz Pxy Pxz Pyz eatoms
0   -110.76064       4.2565       4.2565       4.2565            0            0            0    174504.14    174504.14    174504.14    174504.14 9.3704156e-11 -1.8744789e-10 -4.5445427e-11   -110.76064
Loop time of 0.016221 on 1 procs for 35 steps with 8 atoms

Minimization stats:
  Stopping criterion = linesearch alpha is zero
  Energy initial, next-to-last, final =
  Force two-norm initial, final = 25.1985 4.50194e-05
  Force max component initial, final = 25.1985 4.47407e-05
  Final line search alpha, max atom move = 0.5 2.23704e-05
  Iterations, force evaluations = 35 47

Pair  time (%) = 0.00420427 (25.9186)
Kspce time (%) = 0.00253344 (15.6182)
Neigh time (%) = 0 (0)
Comm  time (%) = 0.00050807 (3.13217)
Outpt time (%) = 3.91006e-05 (0.241049)
Other time (%) = 0.00893617 (55.09)

unfix 1
# ---- define output variables ----
variable natoms equal "count(all)"
variable tot_energy equal "c_eatoms"
variable length_x equal "lx"
variable length_y equal "ly"
variable length_z equal "lz"
variable tilt_xy equal "xy"
variable tilt_xz equal "xz"
variable tilt_yz equal "yz"
variable tot_press equal "press"
variable press_xx equal "pxx"
variable press_yy equal "pyy"
variable press_zz equal "pzz"
variable press_xy equal "pxy"
variable press_xz equal "pxz"
variable press_yz equal "pyz"

# ---- output ----
print "pypospack:output_section:begin"
pypospack:output_section:begin
tot_energy = -111.130018170686
num_atoms = 8
xx = 4.38834393192064
yy = 4.38834393192064
zz = 4.38834393192064
xy = 0
xz = 0
yz = 0
tot_press = -0.291499705167032
pxx = -0.291499704907524
pyy = -0.291499705134451
pzz = -0.291499705459123
pxy = -2.20347627600699e-11
pxz = 5.28894429779567e-11
pyz = 3.17118260401048e-11
print "pypospack:output_section:done"
pypospack:output_section:done
print "pypospack:lammps_sim:done"
pypospack:lammps_sim:done
#------------------------------------------------------------------------------
# RUN THERMOSTAT
# running using an NPT Nose-Hoover style thermostat
#------------------------------------------------------------------------------
variable tempdamp equal 0.1
variable pressdamp equal 1.0
# set initial velocities
velocity all create 600 9952587 mom yes dist gaussian loop all
# fix for Nose-Hoover style thermostat
fix 20 all npt temp 600 600 0.1 aniso 0.0 0.0 1.0 drag 1.0 couple xyz
variable boxx equal lx
variable boxy equal ly
variable boxz equal lz
variable boxp equal press
variable boxt equal temp
# calculate averages every 10000 steps
reset_timestep 0
fix 21 all ave/time 10 10 100 v_boxx v_boxy v_boxz v_boxp v_boxt file lattice.out
thermo_style custom step temp pe ke etotal press lx ly lz press pxx pyy pzz pxy pxz pyz vol
thermo_modify flush yes
thermo 100
run 100000
PPPM initialization ...
  G vector (1/distance) = 0.351569
  grid = 8 8 8
  stencil order = 5
  estimated absolute RMS force accuracy = 4.24255e-05
  estimated relative force accuracy = 2.94629e-06
  3d grid and FFT values/proc = 3375 512
Step Temp PotEng KinEng TotEng Press Lx Ly Lz Press Pxx Pyy Pzz Pxy Pxz Pyz Volume
0          600   -111.12999   0.54289261    -110.5871    6865.5134    4.3883439    4.3883439    4.3883439    6865.5134    6129.2786    2410.5903    12056.671   -1671.5686    111.51249    489.00828    84.508807
Averages over the last 501 of 1001 rows, steps 50000 to 100000:
Temp PotEng KinEng TotEng Press Lx Ly Lz Press Pxx Pyy Pzz Pxy Pxz Pyz Volume
597.392 -110.586 0.540533 -110.045 -765.275 4.40201 4.40201 4.40201 -765.275 -4114.84 -1173.46 2992.47 -71.4 695.523 -568.717 85.301
Loop time of 21.3701 on 1 procs for 100000 steps with 8 atoms

Pair  time (%) = 6.34001 (29.6676)
Kspce time (%) = 5.26243 (24.6252)
Neigh time (%) = 0 (0)
Comm  time (%) = 1.05947 (4.95774)
Outpt time (%) = 0.0190361 (0.0890778)
Other time (%) = 8.68918 (40.6604)

unfix 20
unfix 21
print "seeds:9952587"
seeds:9952587
