LAMMPS (10 Feb 2015)
# ---- initialize simulations
clear
units metal
dimension 3
boundary p p p
atom_style charge
atom_modify map array
# ---- create atoms
read_data /Users/eugeneragasa/pyflamestk_git/pypospack/tests/tests_integration/workflow/WorkflowLammpsThermalExpansion/param_7521/MgO_NaCl_unit.npt.T1700/lammps.structure
  triclinic box = (0 0 0) to (4.2565 4.2565 4.2565) with tilt (0 0 0)
  reading atoms ...
  8 atoms
# ---- define interatomic potential
include potential.mod
mass 1 24.305
mass 2 15.999

group Mg type 1
4 atoms in group Mg
group O type 2
4 atoms in group O

set group Mg charge 1.63791250839
  4 settings made for charge
set group O charge -1.63791250839
  4 settings made for charge

variable R_cut equal 10.0

pair_style buck/coul/long 10
pair_coeff 1 1 0.0 0.5 0.0 10
pair_coeff 1 2 1465.92328509 0.282476486176 0.0 10
pair_coeff 2 2 5816.20442115 0.096233749689 18.932341092 10

kspace_style pppm 1.0e-5

neighbor 1.0 bin
neigh_modify every 1 delay 0 check yes
# ---- define settings
compute eng all pe/atom
compute eatoms all reduce sum c_eng
# ---- run minimization
reset_timestep 0
fix 1 all box/relax iso 0.0 vmax 0.001
thermo 10
thermo_style custom step pe lx ly lz xy xz yz press pxx pyy pzz pxy pxz pyz c_eatoms
min_style cg
minimize 1e-25 1e-25 5000 10000
PPPM initialization ...
  G vector (1/distance) = 0.35267
  grid = 8 8 8
  stencil order = 5
  estimated absolute RMS force accuracy = 3.88211e-05
  estimated relative force accuracy = 2.69597e-06
  3d grid and FFT values/proc = 3375 512
  1 neighbor list requests
  update every 1 steps, delay 0 steps, check yes
Step PotEng Lx Ly Lz Xy Xz Yz Press Pxx Pyy Pzz Pxy Pxz Pyz eatoms
0   -108.70031       4.2565       4.2565       4.2565            0            0            0    82041.316    82041.316    82041.316    82041.316 -4.6499549e-11 -1.1702618e-10 1.7098221e-10   -108.70031
Loop time of 0.00823689 on 1 procs for 19 steps with 8 atoms

Minimization stats:
  Stopping criterion = linesearch alpha is zero
  Energy initial, next-to-last, final =
  Force two-norm initial, final = 11.8468 7.13952e-05
  Force max component initial, final = 11.8468 1.5084e-05
  Final line search alpha, max atom move = 0.5 7.54202e-06
  Iterations, force evaluations = 19 24

Pair  time (%) = 0.00228643 (27.7585)
Kspce time (%) = 0.00133443 (16.2006)
Neigh time (%) = 0 (0)
Comm  time (%) = 0.000253201 (3.07398)
Outpt time (%) = 1.3113e-05 (0.159199)
Other time (%) = 0.00434971 (52.8077)

unfix 1
# ---- define output variables ----
variable natoms equal "count(all)"
variable tot_energy equal "c_eatoms"
variable length_x equal "lx"
variable length_y equal "ly"
variable length_z equal "lz"
variable tilt_xy equal "xy"
variable tilt_xz equal "xz"
variable tilt_yz equal "yz"
variable tot_press equal "press"
variable press_xx equal "pxx"
variable press_yy equal "pyy"
variable press_zz equal "pzz"
variable press_xy equal "pxy"
variable press_xz equal "pxz"
variable press_yz equal "pyz"

# ---- output ----
print "pypospack:output_section:begin"
pypospack:output_section:begin
tot_energy = -108.791316969709
num_atoms = 8
xx = 4.32404254484564
yy = 4.32404254484564
zz = 4.32404254484564
xy = 0
xz = 0
yz = 0
tot_press = -0.0243512411551094
pxx = -0.0243512413415371
pyy = -0.0243512409516822
pzz = -0.024351241172109
pxy = 1.55802849425254e-11
pxz = -3.16060668162342e-12
pyz = 1.25888006757422e-10
print "pypospack:output_section:done"
pypospack:output_section:done
print "pypospack:lammps_sim:done"
pypospack:lammps_sim:done
#------------------------------------------------------------------------------
# RUN THERMOSTAT
# running using an NPT Nose-Hoover style thermostat
#------------------------------------------------------------------------------
variable tempdamp equal 0.1
variable pressdamp equal 1.0
# set initial velocities
velocity all create 1700 788864 mom yes dist gaussian loop all
# fix for Nose-Hoover style thermostat
fix 20 all npt temp 1700 1700 0.1 aniso 0.0 0.0 1.0 drag 1.0 couple xyz
variable boxx equal lx
variable boxy equal ly
variable boxz equal lz
variable boxp equal press
variable boxt equal temp
# calculate averages every 10000 steps
reset_timestep 0
fix 21 all ave/time 10 10 100 v_boxx v_boxy v_boxz v_boxp v_boxt file lattice.out
thermo_style custom step temp pe ke etotal press lx ly lz press pxx pyy pzz pxy pxz pyz vol
thermo_modify flush yes
thermo 100
run 100000
PPPM initialization ...
  G vector (1/distance) = 0.351996
  grid = 8 8 8
  stencil order = 5
  estimated absolute RMS force accuracy = 4.00454e-05
  estimated relative force accuracy = 2.781e-06
  3d grid and FFT values/proc = 3375 512
Step Temp PotEng KinEng TotEng Press Lx Ly Lz Press Pxx Pyy Pzz Pxy Pxz Pyz Volume
0         1700   -108.79133    1.5381957   -107.25313    20319.938    4.3240425    4.3240425    4.3240425    20319.938    16427.801     30179.74    14352.273    12299.079    1777.8519   -8602.7204    80.848111
Averages over the last 501 of 1001 rows, steps 50000 to 100000:
Temp PotEng KinEng TotEng Press Lx Ly Lz Press Pxx Pyy Pzz Pxy Pxz Pyz Volume
1701.94 -107.205 1.53995 -105.665 -3389.34 4.36709 4.36709 4.36709 -3389.34 -3350.47 199.568 -7017.12 4228.5 651.901 -614.246 83.2892
Loop time of 21.9076 on 1 procs for 100000 steps with 8 atoms

Pair  time (%) = 6.57809 (30.0265)
Kspce time (%) = 5.35848 (24.4595)
Neigh time (%) = 0.232317 (1.06044)
Comm  time (%) = 1.00975 (4.60912)
Outpt time (%) = 0.0262725 (0.119924)
Other time (%) = 8.70269 (39.7245)

unfix 20
unfix 21
print "seeds:788864"
seeds:788864
