LAMMPS (10 Feb 2015)
# ---- initialize simulations
clear
units metal
dimension 3
boundary p p p
atom_style charge
atom_modify map array
# ---- create atoms
read_data /Users/eugeneragasa/pyflamestk_git/pypospack/tests/tests_integration/workflow/WorkflowLammpsThermalExpansion/MgO_NaCl_unit.npt.T300/lammps.structure
  triclinic box = (0 0 0) to (4.2565 4.2565 4.2565) with tilt (0 0 0)
  reading atoms ...
  8 atoms
# ---- define interatomic potential
include potential.mod
mass 1 24.305
mass 2 15.999

group Mg type 1
4 atoms in group Mg
group O type 2
4 atoms in group O

set group Mg charge 2.0
  4 settings made for charge
set group O charge -2.0
  4 settings made for charge

variable R_cut equal 10.0

pair_style buck/coul/long 10
pair_coeff 1 1 0.0 0.5 0.0 10
pair_coeff 1 2 1279.69 0.29969 0.0 10
pair_coeff 2 2 9547.96 0.21916 32.0 10

kspace_style pppm 1.0e-5

neighbor 1.0 bin
neigh_modify every 1 delay 0 check yes
# ---- define settings
compute eng all pe/atom
compute eatoms all reduce sum c_eng
# ---- run minimization
reset_timestep 0
fix 1 all box/relax iso 0.0 vmax 0.001
thermo 10
thermo_style custom step pe lx ly lz xy xz yz press pxx pyy pzz pxy pxz pyz c_eatoms
min_style cg
minimize 1e-25 1e-25 5000 10000
PPPM initialization ...
  G vector (1/distance) = 0.354854
  grid = 8 8 8
  stencil order = 5
  estimated absolute RMS force accuracy = 5.34408e-05
  estimated relative force accuracy = 3.71126e-06
  3d grid and FFT values/proc = 3375 512
  1 neighbor list requests
  update every 1 steps, delay 0 steps, check yes
Step PotEng Lx Ly Lz Xy Xz Yz Press Pxx Pyy Pzz Pxy Pxz Pyz eatoms
0    -164.6599       4.2565       4.2565       4.2565            0            0            0   -75586.685   -75586.685   -75586.685   -75586.685 9.4798587e-11 1.6226154e-10 -3.4446142e-11    -164.6599
Loop time of 0.0198009 on 1 procs for 15 steps with 8 atoms

Minimization stats:
  Stopping criterion = linesearch alpha is zero
  Energy initial, next-to-last, final =
  Force two-norm initial, final = 10.9148 0.000791362
  Force max component initial, final = 10.9148 0.000788889
  Final line search alpha, max atom move = 0.015625 1.23264e-05
  Iterations, force evaluations = 15 55

Pair  time (%) = 0.0053432 (26.9846)
Kspce time (%) = 0.0030818 (15.5639)
Neigh time (%) = 0 (0)
Comm  time (%) = 0.000618458 (3.12338)
Outpt time (%) = 1.81198e-05 (0.09151)
Other time (%) = 0.0107393 (54.2366)

unfix 1
# ---- define output variables ----
variable natoms equal "count(all)"
variable tot_energy equal "c_eatoms"
variable length_x equal "lx"
variable length_y equal "ly"
variable length_z equal "lz"
variable tilt_xy equal "xy"
variable tilt_xz equal "xz"
variable tilt_yz equal "yz"
variable tot_press equal "press"
variable press_xx equal "pxx"
variable press_yy equal "pyy"
variable press_zz equal "pzz"
variable press_xy equal "pxy"
variable press_xz equal "pxz"
variable press_yz equal "pyz"

# ---- output ----
print "pypospack:output_section:begin"
pypospack:output_section:begin
tot_energy = -164.722138415744
num_atoms = 8
xx = 4.20883001371435
yy = 4.20883001371435
zz = 4.20883001371435
xy = 0
xz = 0
yz = 0
tot_press = 5.58765665687492
pxx = 5.58765665651822
pyy = 5.58765665647238
pzz = 5.58765665763416
pxy = 2.0554645346851e-10
pxz = 4.24405202668874e-10
pyz = 1.39554488680613e-10
print "pypospack:output_section:done"
pypospack:output_section:done
print "pypospack:lammps_sim:done"
pypospack:lammps_sim:done
#------------------------------------------------------------------------------
# RUN THERMOSTAT
# running using an NPT Nose-Hoover style thermostat
#------------------------------------------------------------------------------
variable tempdamp equal 0.1
variable pressdamp equal 1.0
# set initial velocities
velocity all create 300 5622738 mom yes dist gaussian loop all
# fix for Nose-Hoover style thermostat
fix 20 all npt temp 300 300 0.1 aniso 0.0 0.0 1.0 drag 1.0 couple xyz
variable boxx equal lx
variable boxy equal ly
variable boxz equal lz
variable boxp equal press
variable boxt equal temp
# calculate averages every 10000 steps
reset_timestep 0
fix 21 all ave/time 10 10 100 v_boxx v_boxy v_boxz v_boxp v_boxt file lattice.out
thermo_style custom step temp pe ke etotal press lx ly lz press pxx pyy pzz pxy pxz pyz vol
thermo_modify flush yes
thermo 100
run 100000
PPPM initialization ...
  G vector (1/distance) = 0.355405
  grid = 8 8 8
  stencil order = 5
  estimated absolute RMS force accuracy = 5.20839e-05
  estimated relative force accuracy = 3.61703e-06
  3d grid and FFT values/proc = 3375 512
Step Temp PotEng KinEng TotEng Press Lx Ly Lz Press Pxx Pyy Pzz Pxy Pxz Pyz Volume
0          300   -164.72213    0.2714463   -164.45069    3895.3166      4.20883      4.20883      4.20883    3895.3166    6120.9931    3610.5133    1954.4434   -3858.0597     2038.146   -1481.7142    74.556267
Averages over the last 501 of 1001 rows, steps 50000 to 100000:
Temp PotEng KinEng TotEng Press Lx Ly Lz Press Pxx Pyy Pzz Pxy Pxz Pyz Volume
299.996 -164.45 0.271442 -164.178 -503.61 4.21882 4.21882 4.21882 -503.61 4108.55 -506.434 -5112.94 -172.816 -515.547 120.026 75.0883
Loop time of 29.5865 on 1 procs for 100000 steps with 8 atoms

Pair  time (%) = 9.82254 (33.1995)
Kspce time (%) = 7.09532 (23.9816)
Neigh time (%) = 0 (0)
Comm  time (%) = 1.44258 (4.87583)
Outpt time (%) = 0.0342948 (0.115914)
Other time (%) = 11.1917 (37.8272)

unfix 20
unfix 21
print "seeds:5622738"
seeds:5622738
