LAMMPS (11 Aug 2017)
# ---- initialize simulations
clear
units metal
dimension 3
boundary p p p
atom_style atomic
atom_modify map array
# ---- create atoms
read_data /home/sullberg/repos/pypospack/examples/Ni__eam__born_exp_rose/01_preconditioning_3.5NN/rank_8/Ni_bcc.lmps_min_all/lammps.structure
  triclinic box = (0 0 0) to (2.8005 2.8005 2.8005) with tilt (0 0 0)
  reading atoms ...
  2 atoms
# ---- define interatomic potential
include potential.mod
mass 1 58.6934

group Ni type 1
2 atoms in group Ni

pair_style eam/alloy
pair_coeff * * /home/sullberg/repos/pypospack/examples/Ni__eam__born_exp_rose/01_preconditioning_3.5NN/rank_8/Ni_bcc.lmps_min_all/Ni.eam.alloy Ni

neighbor 1.0 bin
neigh_modify every 1 delay 0 check yes
# ---- define settings
compute eng all pe/atom
compute eatoms all reduce sum c_eng
# ---- run minimization
reset_timestep 0
fix 1 all box/relax aniso 0.0 vmax 0.001
thermo 10
thermo_style custom step pe xhi xlo yhi ylo zhi xy xz yz press pxx pyy pzz pxy pxz pyz c_eatoms
min_style cg
minimize 1e-25 1e-25 5000 10000
  update every 1 steps, delay 0 steps, check yes
Step PotEng Xhi Xlo Yhi Ylo Zhi Xy Xz Yz Press Pxx Pyy Pzz Pxy Pxz Pyz c_eatoms
0   -9.0739047       2.8005            0       2.8005            0       2.8005            0            0            0    4897.9832    4897.9832    4897.9832    4897.9832 -0.0025803182 -0.0025803182 -0.0025803182   -9.0739047
Averages over the last 232 of 464 rows, steps 2320 to 4628:
PotEng Xhi Xlo Yhi Ylo Zhi Xy Xz Yz Press Pxx Pyy Pzz Pxy Pxz Pyz c_eatoms
-74.2273 5.28676 -2.48626 5.28676 -2.48626 5.28676 0 0 0 24.4168 24.4168 24.4168 24.4168 0.38905 0.38905 0.38905 -74.2273
Loop time of 0.371304 on 1 procs for 4628 steps with 2 atoms

Minimization stats:
  Stopping criterion = max force evaluations
  Energy initial, next-to-last, final =
  Force two-norm initial, final = 0.116301 0.00932884
  Force max component initial, final = 0.067145 0.00380629
  Final line search alpha, max atom move = 0.0186252 7.0893e-05
  Iterations, force evaluations = 4628 10001

# ---- define output variables ----
variable natoms equal "count(all)"
variable tot_energy equal "c_eatoms"
variable a11 equal "xhi-xlo"
variable a22 equal "yhi-ylo"
variable a33 equal "zhi-zlo"
variable tilt_xy equal "xy"
variable tilt_xz equal "xz"
variable tilt_yz equal "yz"
variable tot_press equal "press"
variable press_xx equal "pxx"
variable press_yy equal "pyy"
variable press_zz equal "pzz"
variable press_xy equal "pxy"
variable press_xz equal "pxz"
variable press_yz equal "pyz"

# ---- output ----
print "pypospack:output_section:begin"
pypospack:output_section:begin
tot_energy = -74.2283360666552
num_atoms = 2
a11 = 8.57596791955575
a22 = 8.57596791955576
a33 = 8.57596791955577
a12 = 0
a13 = 0
a23 = 0
tot_press = 1.42277913440699
pxx = 1.42277913440863
pyy = 1.42277913440573
pzz = 1.4227791344066
pxy = -0.601655412900882
pxz = -0.601655412900435
pyz = -0.601655412901889
print "pypospack:output_section:done"
pypospack:output_section:done
print "pypospack:lammps_sim:done"
pypospack:lammps_sim:done
