LAMMPS (10 Feb 2015)
# ---- initialize simulations
clear
units metal
dimension 3
boundary p p p
atom_style charge
atom_modify map array
# ---- create atoms
read_data /Users/eugeneragasa/pyflamestk_git/pypospack/tests/tests_integration/workflow/WorkflowLammpsThermalExpansion/param_7495/MgO_NaCl_unit.npt.T600/lammps.structure
  triclinic box = (0 0 0) to (4.2565 4.2565 4.2565) with tilt (0 0 0)
  reading atoms ...
  8 atoms
# ---- define interatomic potential
include potential.mod
mass 1 24.305
mass 2 15.999

group Mg type 1
4 atoms in group Mg
group O type 2
4 atoms in group O

set group Mg charge 1.61805343549
  4 settings made for charge
set group O charge -1.61805343549
  4 settings made for charge

variable R_cut equal 10.0

pair_style buck/coul/long 10
pair_coeff 1 1 0.0 0.5 0.0 10
pair_coeff 1 2 1411.7842896 0.281421547192 0.0 10
pair_coeff 2 2 12275.1016291 0.0833185517679 22.1397903537 10

kspace_style pppm 1.0e-5

neighbor 1.0 bin
neigh_modify every 1 delay 0 check yes
# ---- define settings
compute eng all pe/atom
compute eatoms all reduce sum c_eng
# ---- run minimization
reset_timestep 0
fix 1 all box/relax iso 0.0 vmax 0.001
thermo 10
thermo_style custom step pe lx ly lz xy xz yz press pxx pyy pzz pxy pxz pyz c_eatoms
min_style cg
minimize 1e-25 1e-25 5000 10000
PPPM initialization ...
  G vector (1/distance) = 0.352505
  grid = 8 8 8
  stencil order = 5
  estimated absolute RMS force accuracy = 3.81397e-05
  estimated relative force accuracy = 2.64865e-06
  3d grid and FFT values/proc = 3375 512
  1 neighbor list requests
  update every 1 steps, delay 0 steps, check yes
Step PotEng Lx Ly Lz Xy Xz Yz Press Pxx Pyy Pzz Pxy Pxz Pyz eatoms
0   -106.97328       4.2565       4.2565       4.2565            0            0            0    38192.574    38192.574    38192.574    38192.574 8.7875882e-11 -6.3416216e-11 -7.5192229e-11   -106.97328
Loop time of 0.00917315 on 1 procs for 9 steps with 8 atoms

Minimization stats:
  Stopping criterion = linesearch alpha is zero
  Energy initial, next-to-last, final =
  Force two-norm initial, final = 5.51503 0.00172663
  Force max component initial, final = 5.51503 0.00051974
  Final line search alpha, max atom move = 0.00390625 2.03024e-06
  Iterations, force evaluations = 9 26

Pair  time (%) = 0.00245357 (26.7472)
Kspce time (%) = 0.00148273 (16.1637)
Neigh time (%) = 0 (0)
Comm  time (%) = 0.000293255 (3.19688)
Outpt time (%) = 0 (0)
Other time (%) = 0.00494361 (53.8921)

unfix 1
# ---- define output variables ----
variable natoms equal "count(all)"
variable tot_energy equal "c_eatoms"
variable length_x equal "lx"
variable length_y equal "ly"
variable length_z equal "lz"
variable tilt_xy equal "xy"
variable tilt_xz equal "xz"
variable tilt_yz equal "yz"
variable tot_press equal "press"
variable press_xx equal "pxx"
variable press_yy equal "pyy"
variable press_zz equal "pzz"
variable press_xy equal "pxy"
variable press_xz equal "pxz"
variable press_yz equal "pyz"

# ---- output ----
print "pypospack:output_section:begin"
pypospack:output_section:begin
tot_energy = -106.993416644887
num_atoms = 8
xx = 4.28933011317114
yy = 4.28933011317114
zz = 4.28933011317114
xy = 0
xz = 0
yz = 0
tot_press = -3.54441004469774
pxx = -3.5444100447524
pyy = -3.54441004470836
pzz = -3.54441004463246
pxy = -1.78950429729069e-11
pxz = -1.1181495634962e-10
pyz = -2.95495135207349e-11
print "pypospack:output_section:done"
pypospack:output_section:done
print "pypospack:lammps_sim:done"
pypospack:lammps_sim:done
#------------------------------------------------------------------------------
# RUN THERMOSTAT
# running using an NPT Nose-Hoover style thermostat
#------------------------------------------------------------------------------
variable tempdamp equal 0.1
variable pressdamp equal 1.0
# set initial velocities
velocity all create 600 2406304 mom yes dist gaussian loop all
# fix for Nose-Hoover style thermostat
fix 20 all npt temp 600 600 0.1 aniso 0.0 0.0 1.0 drag 1.0 couple xyz
variable boxx equal lx
variable boxy equal ly
variable boxz equal lz
variable boxp equal press
variable boxt equal temp
# calculate averages every 10000 steps
reset_timestep 0
fix 21 all ave/time 10 10 100 v_boxx v_boxy v_boxz v_boxp v_boxt file lattice.out
thermo_style custom step temp pe ke etotal press lx ly lz press pxx pyy pzz pxy pxz pyz vol
thermo_modify flush yes
thermo 100
run 100000
PPPM initialization ...
  G vector (1/distance) = 0.352181
  grid = 8 8 8
  stencil order = 5
  estimated absolute RMS force accuracy = 3.87093e-05
  estimated relative force accuracy = 2.68821e-06
  3d grid and FFT values/proc = 3375 512
Step Temp PotEng KinEng TotEng Press Lx Ly Lz Press Pxx Pyy Pzz Pxy Pxz Pyz Volume
0          600   -106.99342   0.54289261   -106.45053    7343.3418    4.2893301    4.2893301    4.2893301    7343.3418    10854.494    6103.3178    5072.2137   -907.94133   -6168.4077     1698.708    78.916609
Averages over the last 501 of 1001 rows, steps 50000 to 100000:
Temp PotEng KinEng TotEng Press Lx Ly Lz Press Pxx Pyy Pzz Pxy Pxz Pyz Volume
599.483 -106.45 0.542425 -105.908 -642.3 4.30685 4.30685 4.30685 -642.3 2603.28 239.846 -4770.03 -94.4888 -199.994 -961.935 79.888
Loop time of 22.6603 on 1 procs for 100000 steps with 8 atoms

Pair  time (%) = 7.20797 (31.8089)
Kspce time (%) = 5.50697 (24.3023)
Neigh time (%) = 0 (0)
Comm  time (%) = 1.11976 (4.94154)
Outpt time (%) = 0.0273457 (0.120677)
Other time (%) = 8.7982 (38.8266)

unfix 20
unfix 21
print "seeds:2406304"
seeds:2406304
