LAMMPS (11 Aug 2017)
# ---- initialize simulations
clear
units metal
dimension 3
boundary p p p
atom_style atomic
atom_modify map array
# ---- create atoms
read_data /home/sullberg/repos/pypospack/examples/Ni__eam__born_exp_rose/01_preconditioning_3.5NN/rank_46/Ni_fcc_111_unit.lmps_min_all/lammps.structure
  triclinic box = (0 0 0) to (2.4819 4.2987 6.0783) with tilt (0 0 0)
  reading atoms ...
  6 atoms
# ---- define interatomic potential
include potential.mod
mass 1 58.6934

group Ni type 1
6 atoms in group Ni

pair_style eam/alloy
pair_coeff * * /home/sullberg/repos/pypospack/examples/Ni__eam__born_exp_rose/01_preconditioning_3.5NN/rank_46/Ni_fcc_111_unit.lmps_min_all/Ni.eam.alloy Ni

neighbor 1.0 bin
neigh_modify every 1 delay 0 check yes
# ---- define settings
compute eng all pe/atom
compute eatoms all reduce sum c_eng
# ---- run minimization
reset_timestep 0
fix 1 all box/relax aniso 0.0 vmax 0.001
thermo 10
thermo_style custom step pe xhi xlo yhi ylo zhi xy xz yz press pxx pyy pzz pxy pxz pyz c_eatoms
min_style cg
minimize 1e-25 1e-25 5000 10000
  update every 1 steps, delay 0 steps, check yes
Step PotEng Xhi Xlo Yhi Ylo Zhi Xy Xz Yz Press Pxx Pyy Pzz Pxy Pxz Pyz c_eatoms
0   -26.867685       2.4819            0       4.2987            0       6.0783            0            0            0    27372.795    27382.579    27380.569    27355.235 0.00019953363 7.3010119e-05   0.53718644   -26.867685
Averages over the last 251 of 501 rows, steps 2500 to 5000:
PotEng Xhi Xlo Yhi Ylo Zhi Xy Xz Yz Press Pxx Pyy Pzz Pxy Pxz Pyz c_eatoms
-30.1431 6.78399 -4.30209 4.05908 0.239621 4.96685 0 0 0 2576.33 7339.28 267.653 122.066 -1.53469 -1.76985 29484.1 -30.1431
Loop time of 1.52858 on 1 procs for 5000 steps with 6 atoms

Minimization stats:
  Stopping criterion = max iterations
  Energy initial, next-to-last, final =
  Force two-norm initial, final = 1.91899 0.0928124
  Force max component initial, final = 1.10833 0.0451056
  Final line search alpha, max atom move = 0.0220492 0.000994544
  Iterations, force evaluations = 5000 5428

# ---- define output variables ----
variable natoms equal "count(all)"
variable tot_energy equal "c_eatoms"
variable a11 equal "xhi-xlo"
variable a22 equal "yhi-ylo"
variable a33 equal "zhi-zlo"
variable tilt_xy equal "xy"
variable tilt_xz equal "xz"
variable tilt_yz equal "yz"
variable tot_press equal "press"
variable press_xx equal "pxx"
variable press_yy equal "pyy"
variable press_zz equal "pzz"
variable press_xy equal "pxy"
variable press_xz equal "pxz"
variable press_yz equal "pyz"

# ---- output ----
print "pypospack:output_section:begin"
pypospack:output_section:begin
tot_energy = -31.9134889200594
num_atoms = 6
a11 = 12.5987582006394
a22 = 6.31687674964154
a33 = 6.5498019612878
a12 = 0
a13 = 0
a23 = 0
tot_press = 159.138432217123
pxx = 161.363302908689
pyy = 203.726674273586
pzz = 112.325319469094
pxy = -3.42120649562457
pxz = -5.05786330887186
pyz = 315.903885944059
print "pypospack:output_section:done"
pypospack:output_section:done
print "pypospack:lammps_sim:done"
pypospack:lammps_sim:done
