LAMMPS (11 Aug 2017)
# ---- initialize simulations
clear
units metal
dimension 3
boundary p p p
atom_style atomic
atom_modify map array
# ---- create atoms
read_data /home/sullberg/repos/pypospack/examples/Ni__eam__born_exp_rose/01_preconditioning_3.5NN/rank_14/Ni_fcc_vac.lmps_min_pos/lammps.structure
  triclinic box = (0 0 0) to (25.851 25.851 25.851) with tilt (0 -0 -0)
  reading atoms ...
  107 atoms
# ---- define interatomic potential
include potential.mod
mass 1 58.6934

group Ni type 1
107 atoms in group Ni

pair_style eam/alloy
pair_coeff * * /home/sullberg/repos/pypospack/examples/Ni__eam__born_exp_rose/01_preconditioning_3.5NN/rank_14/Ni_fcc_vac.lmps_min_pos/Ni.eam.alloy Ni

neighbor 1.0 bin
neigh_modify every 1 delay 0 check yes
# ---- define settings
compute eng all pe/atom
compute eatoms all reduce sum c_eng

# ---- run minimization
reset_timestep 0
thermo 1
thermo_style custom step pe lx ly lz xy xz yz press pxx pyy pzz pxy pxz pyz c_eatoms
min_style cg
minimize 1e-20 1e-20 1000 100000
  update every 1 steps, delay 0 steps, check yes
Step PotEng Lx Ly Lz Xy Xz Yz Press Pxx Pyy Pzz Pxy Pxz Pyz c_eatoms
0   -12.545756       25.851       25.851       25.851            0           -0           -0   -679.80814   -679.80814   -679.80814   -679.80814 2.2394832e-13 1.0039063e-13 -1.9048478e-13   -12.545756
Averages over the last 501 of 1001 rows, steps 500 to 1000:
PotEng Lx Ly Lz Xy Xz Yz Press Pxx Pyy Pzz Pxy Pxz Pyz c_eatoms
-510.631 25.851 25.851 25.851 0 0 0 8.47328 8.58931 8.57344 8.25709 0.454748 0.489365 0.182902 -510.631
Loop time of 0.423928 on 1 procs for 1000 steps with 107 atoms

Minimization stats:
  Stopping criterion = max iterations
  Energy initial, next-to-last, final =
  Force two-norm initial, final = 0.019587 0.0200042
  Force max component initial, final = 0.00399816 0.00554632
  Final line search alpha, max atom move = 0.472624 0.00262132
  Iterations, force evaluations = 1000 1753

# ---- define output variables ----
variable natoms equal "count(all)"
variable tot_energy equal "c_eatoms"
variable a11 equal "xhi-xlo"
variable a22 equal "yhi-ylo"
variable a33 equal "zhi-zlo"
variable tilt_xy equal "xy"
variable tilt_xz equal "xz"
variable tilt_yz equal "yz"
variable tot_press equal "press"
variable press_xx equal "pxx"
variable press_yy equal "pyy"
variable press_zz equal "pzz"
variable press_xy equal "pxy"
variable press_xz equal "pxz"
variable press_yz equal "pyz"

# ---- output ----
print "pypospack:output_section:begin"
pypospack:output_section:begin
tot_energy = -510.638604570873
num_atoms = 107
a11 = 25.851
a22 = 25.851
a33 = 25.851
a12 = 0
a13 = -0
a23 = -0
tot_press = 6.35879800446214
pxx = 6.89038504441906
pyy = 6.18147785240774
pzz = 6.00453111655962
pxy = 0.339958018856157
pxz = 0.500539276021069
pyz = 0.563581682628615
print "pypospack:output_section:done"
pypospack:output_section:done
print "pypospack:lammps_sim:done"
pypospack:lammps_sim:done
