LAMMPS (10 Feb 2015)
# ---- initialize simulations
clear
units metal
dimension 3
boundary p p p
atom_style charge
atom_modify map array
# ---- create atoms
read_data /Users/eugeneragasa/pyflamestk_git/pypospack/tests/tests_integration/workflow/WorkflowLammpsThermalExpansion/param_2856/MgO_NaCl_unit.npt.T1900/lammps.structure
  triclinic box = (0 0 0) to (4.2565 4.2565 4.2565) with tilt (0 0 0)
  reading atoms ...
  8 atoms
# ---- define interatomic potential
include potential.mod
mass 1 24.305
mass 2 15.999

group Mg type 1
4 atoms in group Mg
group O type 2
4 atoms in group O

set group Mg charge 1.71287520642
  4 settings made for charge
set group O charge -1.71287520642
  4 settings made for charge

variable R_cut equal 10.0

pair_style buck/coul/long 10
pair_coeff 1 1 0.0 0.5 0.0 10
pair_coeff 1 2 1268.25800143 0.292150986054 0.0 10
pair_coeff 2 2 34972.2762623 0.190168709461 15.9037418312 10

kspace_style pppm 1.0e-5

neighbor 1.0 bin
neigh_modify every 1 delay 0 check yes
# ---- define settings
compute eng all pe/atom
compute eatoms all reduce sum c_eng
# ---- run minimization
reset_timestep 0
fix 1 all box/relax iso 0.0 vmax 0.001
thermo 10
thermo_style custom step pe lx ly lz xy xz yz press pxx pyy pzz pxy pxz pyz c_eatoms
min_style cg
minimize 1e-25 1e-25 5000 10000
PPPM initialization ...
  G vector (1/distance) = 0.353245
  grid = 8 8 8
  stencil order = 5
  estimated absolute RMS force accuracy = 4.15075e-05
  estimated relative force accuracy = 2.88254e-06
  3d grid and FFT values/proc = 3375 512
  1 neighbor list requests
  update every 1 steps, delay 0 steps, check yes
Step PotEng Lx Ly Lz Xy Xz Yz Press Pxx Pyy Pzz Pxy Pxz Pyz eatoms
0    -118.2398       4.2565       4.2565       4.2565            0            0            0    92099.563    92099.563    92099.563    92099.563 -2.6648665e-10 1.3518399e-10 2.2028947e-10    -118.2398
Loop time of 0.0121388 on 1 procs for 18 steps with 8 atoms

Minimization stats:
  Stopping criterion = linesearch alpha is zero
  Energy initial, next-to-last, final =
  Force two-norm initial, final = 13.2992 0.00175014
  Force max component initial, final = 13.2992 0.000655584
  Final line search alpha, max atom move = 0.00390625 2.56088e-06
  Iterations, force evaluations = 18 35

Pair  time (%) = 0.00330114 (27.1949)
Kspce time (%) = 0.00193238 (15.919)
Neigh time (%) = 0 (0)
Comm  time (%) = 0.000367165 (3.02471)
Outpt time (%) = 1.40667e-05 (0.115882)
Other time (%) = 0.00652409 (53.7455)

unfix 1
# ---- define output variables ----
variable natoms equal "count(all)"
variable tot_energy equal "c_eatoms"
variable length_x equal "lx"
variable length_y equal "ly"
variable length_z equal "lz"
variable tilt_xy equal "xy"
variable tilt_xz equal "xz"
variable tilt_yz equal "yz"
variable tot_press equal "press"
variable press_xx equal "pxx"
variable press_yy equal "pyy"
variable press_zz equal "pzz"
variable press_xy equal "pxy"
variable press_xz equal "pxz"
variable press_yz equal "pyz"

# ---- output ----
print "pypospack:output_section:begin"
pypospack:output_section:begin
tot_energy = -118.347671293792
num_atoms = 8
xx = 4.32773421076983
yy = 4.32773421076983
zz = 4.32773421076983
xy = 0
xz = 0
yz = 0
tot_press = -4.39181402043263
pxx = -4.39181402021402
pyy = -4.39181402042068
pzz = -4.39181402066319
pxy = -1.12401857084108e-10
pxz = -1.60347032595802e-10
pyz = -8.89166196817966e-11
print "pypospack:output_section:done"
pypospack:output_section:done
print "pypospack:lammps_sim:done"
pypospack:lammps_sim:done
#------------------------------------------------------------------------------
# RUN THERMOSTAT
# running using an NPT Nose-Hoover style thermostat
#------------------------------------------------------------------------------
variable tempdamp equal 0.1
variable pressdamp equal 1.0
# set initial velocities
velocity all create 1900 1372602 mom yes dist gaussian loop all
# fix for Nose-Hoover style thermostat
fix 20 all npt temp 1900 1900 0.1 aniso 0.0 0.0 1.0 drag 1.0 couple xyz
variable boxx equal lx
variable boxy equal ly
variable boxz equal lz
variable boxp equal press
variable boxt equal temp
# calculate averages every 10000 steps
reset_timestep 0
fix 21 all ave/time 10 10 100 v_boxx v_boxy v_boxz v_boxp v_boxt file lattice.out
thermo_style custom step temp pe ke etotal press lx ly lz press pxx pyy pzz pxy pxz pyz vol
thermo_modify flush yes
thermo 100
run 100000
PPPM initialization ...
  G vector (1/distance) = 0.352508
  grid = 8 8 8
  stencil order = 5
  estimated absolute RMS force accuracy = 4.29555e-05
  estimated relative force accuracy = 2.9831e-06
  3d grid and FFT values/proc = 3375 512
Step Temp PotEng KinEng TotEng Press Lx Ly Lz Press Pxx Pyy Pzz Pxy Pxz Pyz Volume
0         1900   -118.34768    1.7191599   -116.62852    22648.066    4.3277342    4.3277342    4.3277342    22648.066    13235.095     43924.72    10784.383   -3425.7032    2294.7021    16005.393    81.055361
Averages over the last 501 of 1001 rows, steps 50000 to 100000:
Temp PotEng KinEng TotEng Press Lx Ly Lz Press Pxx Pyy Pzz Pxy Pxz Pyz Volume
1886.89 -116.54 1.70729 -114.833 -2266.3 4.38338 4.38338 4.38338 -2266.3 -2942.63 -2680.99 -1175.27 -3928.38 2691.32 3515.88 84.2262
Loop time of 22.0662 on 1 procs for 100000 steps with 8 atoms

Pair  time (%) = 6.68544 (30.2972)
Kspce time (%) = 5.3819 (24.3898)
Neigh time (%) = 0.242226 (1.09772)
Comm  time (%) = 0.998591 (4.52543)
Outpt time (%) = 0.0252638 (0.114491)
Other time (%) = 8.73279 (39.5754)

unfix 20
unfix 21
print "seeds:1372602"
seeds:1372602
