LAMMPS (11 Aug 2017)
# ---- initialize simulations
clear
units metal
dimension 3
boundary p p p
atom_style atomic
atom_modify map array
# ---- create atoms
read_data /home/eragasa/repos/pypospack/examples/Ni__eam__born_exp_rose/preconditioning_3.5NN/rank_120/Ni_fcc.lmps_min_all/lammps.structure
  triclinic box = (0 0 0) to (3.5167 3.5167 3.5167) with tilt (0 -0 0)
  reading atoms ...
  4 atoms
# ---- define interatomic potential
include potential.mod
mass 1 58.6934

group Ni type 1
4 atoms in group Ni

pair_style eam/alloy
pair_coeff * * /home/eragasa/repos/pypospack/examples/Ni__eam__born_exp_rose/preconditioning_3.5NN/rank_120/Ni_fcc.lmps_min_all/Ni.eam.alloy Ni

neighbor 1.0 bin
neigh_modify every 1 delay 0 check yes
# ---- define settings
compute eng all pe/atom
compute eatoms all reduce sum c_eng
# ---- run minimization
reset_timestep 0
fix 1 all box/relax aniso 0.0 vmax 0.001
thermo 10
thermo_style custom step pe xhi xlo yhi ylo zhi xy xz yz press pxx pyy pzz pxy pxz pyz c_eatoms
min_style cg
minimize 1e-25 1e-25 5000 10000
  update every 1 steps, delay 0 steps, check yes
Step PotEng Xhi Xlo Yhi Ylo Zhi Xy Xz Yz Press Pxx Pyy Pzz Pxy Pxz Pyz c_eatoms
0   -17.825291       3.5167            0       3.5167            0       3.5167            0           -0            0    1764.2257    1764.2257    1764.2257    1764.2257 1.4314714e-11 -1.4314714e-11 -3.8854223e-11   -17.825291
Averages over the last 57 of 113 rows, steps 560 to 1115:
PotEng Xhi Xlo Yhi Ylo Zhi Xy Xz Yz Press Pxx Pyy Pzz Pxy Pxz Pyz c_eatoms
-17.8254 3.51738 -0.000676118 3.51738 -0.000676118 3.51738 0 0 0 3.06905 3.06905 3.06905 3.06905 -1.54091e-10 -4.58681e-12 -2.42998e-10 -17.8254
Loop time of 0.159389 on 1 procs for 1115 steps with 4 atoms

Minimization stats:
  Stopping criterion = max force evaluations
  Energy initial, next-to-last, final =
  Force two-norm initial, final = 0.0907108 0.00252076
  Force max component initial, final = 0.0478905 0.00145536
  Final line search alpha, max atom move = 0.0108559 1.57992e-05
  Iterations, force evaluations = 1115 10002

# ---- define output variables ----
variable natoms equal "count(all)"
variable tot_energy equal "c_eatoms"
variable a11 equal "xhi-xlo"
variable a22 equal "yhi-ylo"
variable a33 equal "zhi-zlo"
variable tilt_xy equal "xy"
variable tilt_xz equal "xz"
variable tilt_yz equal "yz"
variable tot_press equal "press"
variable press_xx equal "pxx"
variable press_yy equal "pyy"
variable press_zz equal "pzz"
variable press_xy equal "pxy"
variable press_xz equal "pxz"
variable press_yz equal "pyz"

# ---- output ----
print "pypospack:output_section:begin"
pypospack:output_section:begin
tot_energy = -17.8253530193788
num_atoms = 4
a11 = 3.51805452366014
a22 = 3.51805452366014
a33 = 3.51805452366014
a12 = 0
a13 = -0
a23 = 0
tot_press = -53.5723696748265
pxx = -53.57236967477
pyy = -53.5723696747884
pzz = -53.5723696749211
pxy = -5.31075469360075e-11
pxz = 7.21037079554256e-10
pyz = 6.82227718331789e-10
print "pypospack:output_section:done"
pypospack:output_section:done
print "pypospack:lammps_sim:done"
pypospack:lammps_sim:done
