LAMMPS (10 Feb 2015)
# ---- initialize simulations
clear
units metal
dimension 3
boundary p p p
atom_style charge
atom_modify map array
# ---- create atoms
read_data /Users/eugeneragasa/pyflamestk_git/pypospack/tests/tests_integration/workflow/WorkflowLammpsThermalExpansion/param_2424/MgO_NaCl_unit.npt.T400/lammps.structure
  triclinic box = (0 0 0) to (4.2565 4.2565 4.2565) with tilt (0 0 0)
  reading atoms ...
  8 atoms
# ---- define interatomic potential
include potential.mod
mass 1 24.305
mass 2 15.999

group Mg type 1
4 atoms in group Mg
group O type 2
4 atoms in group O

set group Mg charge 1.67924051174
  4 settings made for charge
set group O charge -1.67924051174
  4 settings made for charge

variable R_cut equal 10.0

pair_style buck/coul/long 10
pair_coeff 1 1 0.0 0.5 0.0 10
pair_coeff 1 2 1306.98043044 0.288034123545 0.0 10
pair_coeff 2 2 2032.48006166 0.252585756474 14.8401495582 10

kspace_style pppm 1.0e-5

neighbor 1.0 bin
neigh_modify every 1 delay 0 check yes
# ---- define settings
compute eng all pe/atom
compute eatoms all reduce sum c_eng
# ---- run minimization
reset_timestep 0
fix 1 all box/relax iso 0.0 vmax 0.001
thermo 10
thermo_style custom step pe lx ly lz xy xz yz press pxx pyy pzz pxy pxz pyz c_eatoms
min_style cg
minimize 1e-25 1e-25 5000 10000
PPPM initialization ...
  G vector (1/distance) = 0.352997
  grid = 8 8 8
  stencil order = 5
  estimated absolute RMS force accuracy = 4.02799e-05
  estimated relative force accuracy = 2.79728e-06
  3d grid and FFT values/proc = 3375 512
  1 neighbor list requests
  update every 1 steps, delay 0 steps, check yes
Step PotEng Lx Ly Lz Xy Xz Yz Press Pxx Pyy Pzz Pxy Pxz Pyz eatoms
0   -114.09861       4.2565       4.2565       4.2565            0            0            0    83013.551    83013.551    83013.551    83013.551 1.023811e-10 -6.100653e-11 -2.0427431e-10   -114.09861
Loop time of 0.00890589 on 1 procs for 19 steps with 8 atoms

Minimization stats:
  Stopping criterion = linesearch alpha is zero
  Energy initial, next-to-last, final =
  Force two-norm initial, final = 11.9872 7.95763e-05
  Force max component initial, final = 11.9872 1.65313e-05
  Final line search alpha, max atom move = 0.5 8.26564e-06
  Iterations, force evaluations = 19 24

Pair  time (%) = 0.00234151 (26.2917)
Kspce time (%) = 0.00158763 (17.8267)
Neigh time (%) = 0 (0)
Comm  time (%) = 0.000295401 (3.31691)
Outpt time (%) = 3.60012e-05 (0.404241)
Other time (%) = 0.00464535 (52.1604)

unfix 1
# ---- define output variables ----
variable natoms equal "count(all)"
variable tot_energy equal "c_eatoms"
variable length_x equal "lx"
variable length_y equal "ly"
variable length_z equal "lz"
variable tilt_xy equal "xy"
variable tilt_xz equal "xz"
variable tilt_yz equal "yz"
variable tot_press equal "press"
variable press_xx equal "pxx"
variable press_yy equal "pyy"
variable press_zz equal "pzz"
variable press_xy equal "pxy"
variable press_xz equal "pxz"
variable press_yz equal "pyz"

# ---- output ----
print "pypospack:output_section:begin"
pypospack:output_section:begin
tot_energy = -114.188144106894
num_atoms = 8
xx = 4.32198834005221
yy = 4.32198834005221
zz = 4.32198834005221
xy = 0
xz = 0
yz = 0
tot_press = -0.0146428956780545
pxx = -0.0146428956419126
pyy = -0.0146428958165915
pzz = -0.0146428955756593
pxy = -4.27888380608005e-11
pxz = 1.56077321107314e-10
pyz = -4.51248020389503e-11
print "pypospack:output_section:done"
pypospack:output_section:done
print "pypospack:lammps_sim:done"
pypospack:lammps_sim:done
#------------------------------------------------------------------------------
# RUN THERMOSTAT
# running using an NPT Nose-Hoover style thermostat
#------------------------------------------------------------------------------
variable tempdamp equal 0.1
variable pressdamp equal 1.0
# set initial velocities
velocity all create 400 633355 mom yes dist gaussian loop all
# fix for Nose-Hoover style thermostat
fix 20 all npt temp 400 400 0.1 aniso 0.0 0.0 1.0 drag 1.0 couple xyz
variable boxx equal lx
variable boxy equal ly
variable boxz equal lz
variable boxp equal press
variable boxt equal temp
# calculate averages every 10000 steps
reset_timestep 0
fix 21 all ave/time 10 10 100 v_boxx v_boxy v_boxz v_boxp v_boxt file lattice.out
thermo_style custom step temp pe ke etotal press lx ly lz press pxx pyy pzz pxy pxz pyz vol
thermo_modify flush yes
thermo 100
run 100000
PPPM initialization ...
  G vector (1/distance) = 0.35233
  grid = 8 8 8
  stencil order = 5
  estimated absolute RMS force accuracy = 4.15437e-05
  estimated relative force accuracy = 2.88505e-06
  3d grid and FFT values/proc = 3375 512
Step Temp PotEng KinEng TotEng Press Lx Ly Lz Press Pxx Pyy Pzz Pxy Pxz Pyz Volume
0          400   -114.18815   0.36192841   -113.82623    4786.5614    4.3219883    4.3219883    4.3219883    4786.5614    6127.8999    4715.5073     3516.277     1344.592    1735.9467   -864.40233    80.732941
Averages over the last 501 of 1001 rows, steps 50000 to 100000:
Temp PotEng KinEng TotEng Press Lx Ly Lz Press Pxx Pyy Pzz Pxy Pxz Pyz Volume
400.262 -113.823 0.362165 -113.461 -573.287 4.34197 4.34197 4.34197 -573.287 -2779.6 -3517.96 4577.7 -172.592 -391.493 -78.058 81.8579
Loop time of 21.9699 on 1 procs for 100000 steps with 8 atoms

Pair  time (%) = 6.68737 (30.4388)
Kspce time (%) = 5.42847 (24.7087)
Neigh time (%) = 0 (0)
Comm  time (%) = 1.10559 (5.03231)
Outpt time (%) = 0.0241084 (0.109734)
Other time (%) = 8.72436 (39.7105)

unfix 20
unfix 21
print "seeds:633355"
seeds:633355
