LAMMPS (12 Dec 2018)
# ---- initialize simulations
clear
units metal
dimension 3
boundary p p p
atom_style atomic
atom_modify map array
# ---- create atoms
read_data /Users/eugeneragasa/repos/pypospack/dev/workflow/LammpsThermalExpansion/Si_dia_unit.thermal_expansion/Si_dia_unit.npt_T200_P0/lammps.structure
  triclinic box = (0 0 0) to (5.43 5.43 5.43) with tilt (0 0 0)
  reading atoms ...
  8 atoms
replicate 10 10 10
  triclinic box = (0 0 0) to (54.3 54.3 54.3) with tilt (0 0 0)
  8000 atoms
  Time spent = 0.000833988 secs
change_box all x scale 1 y scale 1 z scale 1 remap
  triclinic box = (0 0 0) to (54.3 54.3 54.3) with tilt (0 0 0)
  triclinic box = (0 0 0) to (54.3 54.3 54.3) with tilt (0 0 0)
  triclinic box = (0 0 0) to (54.3 54.3 54.3) with tilt (0 0 0)
# ---- define interatomic potential
include potential.mod
mass 1 28.086

group Si type 1
8000 atoms in group Si

pair_style sw
pair_coeff * * Si.parameters Si

neighbor 1.0 bin
neigh_modify every 1 delay 0 check yes
# ---- define settings
compute eng all pe/atom
compute eatoms all reduce sum c_eng
# ---- run minimization
reset_timestep 0
fix 1 all box/relax iso 0.0 vmax 0.001
thermo 10
thermo_style custom step pe lx ly lz xy xz yz press pxx pyy pzz pxy pxz pyz c_eatoms
min_style cg
minimize 1e-25 1e-25 5000 10000
  update every 1 steps, delay 0 steps, check yes
Step PotEng Lx Ly Lz Xy Xz Yz Press Pxx Pyy Pzz Pxy Pxz Pyz c_eatoms
0   -34697.586         54.3         54.3         54.3            0            0            0    532.64171    532.64171    532.64171    532.64171 4.4249959e-10 4.4274437e-10 4.4239356e-10   -34697.586
Loop time of 0.054558 on 1 procs for 3 steps with 8000 atoms

Minimization stats:
  Stopping criterion = energy tolerance
  Energy initial, next-to-last, final =
  Force two-norm initial, final = 159.678 3.16955e-06
  Force max component initial, final = 159.678 3.16955e-06
  Final line search alpha, max atom move = 0.910682 2.88645e-06
  Iterations, force evaluations = 3 6

unfix 1
#------------------------------------------------------------------------------
# RUN THERMOSTAT
# running using an NPT Nose-Hoover style thermostat
#------------------------------------------------------------------------------
variable tempdamp equal 0.1
variable pressdamp equal 1.0

timestep 0.001
# set thermo -----------------------------------------------------------------
thermo 100
thermo_style custom step temp pe ke etotal press lx ly lz press pxx pyy pzz pxy pxz pyz vol
thermo_modify flush yes
# set averaging ---------------------------------------------------------------
variable boxx equal lx
variable boxy equal ly
variable boxz equal lz
variable boxp equal press
variable boxt equal temp
# calculate averages every 10000 steps
# set initial velocities ------------------------------------------------------
reset_timestep 0
velocity all create 200 4829389 mom yes dist gaussian loop all
# ramping the temperature
# fix for Nose-Hoover style thermostat ----------------------------------------
fix npt1 all npt temp 200 200 0.1 aniso 0.0 0.0 1.0 drag 1.0 couple xyz
fix npt1out all ave/time 1 500 500 v_boxx v_boxy v_boxz v_boxp v_boxt file lattice1.out
run 10000
Step Temp PotEng KinEng TotEng Press Lx Ly Lz Press Pxx Pyy Pzz Pxy Pxz Pyz Volume
0          200     -34697.6    206.79038    -34490.81     1378.866    54.309498    54.309498    54.309498     1378.866     1379.083    1384.5919    1372.9231   -6.5859726    12.965155   -7.6560022    160187.03
Averages over the last 51 of 101 rows, steps 5000 to 10000:
Temp PotEng KinEng TotEng Press Lx Ly Lz Press Pxx Pyy Pzz Pxy Pxz Pyz Volume
198.564 -34487.8 205.305 -34282.4 -8.47912 54.3524 54.3524 54.3524 -8.47912 -9.22304 -4.64008 -11.5743 7.83489 -6.5814 5.81079 160567
Loop time of 90.7479 on 1 procs for 10000 steps with 8000 atoms

# holding temperature here
# fix for Nose-Hoover style thermostat ----------------------------------------
fix npt2 all npt temp 200 200 0.1 aniso 0.0 0.0 1.0 drag 1.0 couple xyz
fix npt2out all ave/time 1 500 500 v_boxx v_boxy v_boxz v_boxp v_boxt file lattice2.out
compute rdf2 all rdf 50
fix rdf2out all ave/time 100 1 100 c_rdf2[*] file rdf2.out mode vector
run 10000# ---- define output variables ----
  update every 1 steps, delay 0 steps, check yes
Step Temp PotEng KinEng TotEng Press Lx Ly Lz Press Pxx Pyy Pzz Pxy Pxz Pyz Volume
10000    196.29168   -34485.242    202.95616   -34282.286    331.39902    54.346946    54.346946    54.346946    331.39902    276.83508    369.18071    348.18127    231.41816   -488.56202   -68.109692    160518.63
Averages over the last 51 of 101 rows, steps 15000 to 20000:
Temp PotEng KinEng TotEng Press Lx Ly Lz Press Pxx Pyy Pzz Pxy Pxz Pyz Volume
1035.35 -33591 1070.5 -32520.5 -6.69231 54.6122 54.6122 54.6122 -6.69231 -15.6868 48.2099 -52.6001 68.4507 -106.761 73.1539 162880
Loop time of 96.2172 on 1 procs for 10000 steps with 8000 atoms

variable natoms equal "count(all)"
variable tot_energy equal "c_eatoms"
variable a11 equal "xhi-xlo"
variable a22 equal "yhi-ylo"
variable a33 equal "zhi-zlo"
variable tilt_xy equal "xy"
variable tilt_xz equal "xz"
variable tilt_yz equal "yz"
variable tot_press equal "press"
variable press_xx equal "pxx"
variable press_yy equal "pyy"
variable press_zz equal "pzz"
variable press_xy equal "pxy"
variable press_xz equal "pxz"
variable press_yz equal "pyz"

# ---- output ----
print "pypospack:output_section:begin"
pypospack:output_section:begin
num_atoms = 8000
a11 = 54.6077834136086
a22 = 54.6077834136086
a33 = 54.6077834136086
a12 = 0
a13 = 0
a23 = 0
tot_press = -93.6712165370117
pxx = -258.397664040142
pyy = -14.4074254662398
pzz = -8.20856010471001
pxy = 8389.63718921761
pxz = -7169.43673016215
pyz = -934.166546317168
print "pypospack:output_section:done"
pypospack:output_section:done
print "pypospack:lammps_sim:done"
pypospack:lammps_sim:done
