LAMMPS (10 Feb 2015)
# ---- initialize simulations
clear
units metal
dimension 3
boundary p p p
atom_style charge
atom_modify map array
# ---- create atoms
read_data /Users/eugeneragasa/pyflamestk_git/pypospack/tests/tests_integration/workflow/WorkflowLammpsThermalExpansion/param_6993/MgO_NaCl_unit.npt.T1700/lammps.structure
  triclinic box = (0 0 0) to (4.2565 4.2565 4.2565) with tilt (0 0 0)
  reading atoms ...
  8 atoms
# ---- define interatomic potential
include potential.mod
mass 1 24.305
mass 2 15.999

group Mg type 1
4 atoms in group Mg
group O type 2
4 atoms in group O

set group Mg charge 1.61814101446
  4 settings made for charge
set group O charge -1.61814101446
  4 settings made for charge

variable R_cut equal 10.0

pair_style buck/coul/long 10
pair_coeff 1 1 0.0 0.5 0.0 10
pair_coeff 1 2 1169.10574889 0.285525631363 0.0 10
pair_coeff 2 2 5328.19415446 0.197938803692 16.6059399876 10

kspace_style pppm 1.0e-5

neighbor 1.0 bin
neigh_modify every 1 delay 0 check yes
# ---- define settings
compute eng all pe/atom
compute eatoms all reduce sum c_eng
# ---- run minimization
reset_timestep 0
fix 1 all box/relax iso 0.0 vmax 0.001
thermo 10
thermo_style custom step pe lx ly lz xy xz yz press pxx pyy pzz pxy pxz pyz c_eatoms
min_style cg
minimize 1e-25 1e-25 5000 10000
PPPM initialization ...
  G vector (1/distance) = 0.352506
  grid = 8 8 8
  stencil order = 5
  estimated absolute RMS force accuracy = 3.81426e-05
  estimated relative force accuracy = 2.64886e-06
  3d grid and FFT values/proc = 3375 512
  1 neighbor list requests
  update every 1 steps, delay 0 steps, check yes
Step PotEng Lx Ly Lz Xy Xz Yz Press Pxx Pyy Pzz Pxy Pxz Pyz eatoms
0   -108.09373       4.2565       4.2565       4.2565            0            0            0    -32837.55    -32837.55    -32837.55    -32837.55 6.8800808e-12 1.9793426e-10 1.5308399e-10   -108.09373
Loop time of 0.0110879 on 1 procs for 9 steps with 8 atoms

Minimization stats:
  Stopping criterion = linesearch alpha is zero
  Energy initial, next-to-last, final =
  Force two-norm initial, final = 4.74176 0.0024943
  Force max component initial, final = 4.74176 0.00196378
  Final line search alpha, max atom move = 0.00390625 7.67103e-06
  Iterations, force evaluations = 9 28

Pair  time (%) = 0.00310516 (28.005)
Kspce time (%) = 0.0017736 (15.9958)
Neigh time (%) = 0 (0)
Comm  time (%) = 0.000347376 (3.13293)
Outpt time (%) = 0 (0)
Other time (%) = 0.00586176 (52.8663)

unfix 1
# ---- define output variables ----
variable natoms equal "count(all)"
variable tot_energy equal "c_eatoms"
variable length_x equal "lx"
variable length_y equal "ly"
variable length_z equal "lz"
variable tilt_xy equal "xy"
variable tilt_xz equal "xz"
variable tilt_yz equal "yz"
variable tot_press equal "press"
variable press_xx equal "pxx"
variable press_yy equal "pyy"
variable press_zz equal "pzz"
variable press_xy equal "pxy"
variable press_xz equal "pxz"
variable press_yz equal "pyz"

# ---- output ----
print "pypospack:output_section:begin"
pypospack:output_section:begin
tot_energy = -108.110551708828
num_atoms = 8
xx = 4.22658398474032
yy = 4.22658398474032
zz = 4.22658398474032
xy = 0
xz = 0
yz = 0
tot_press = 13.7927584127517
pxx = 13.7927584125475
pyy = 13.7927584121258
pzz = 13.7927584135819
pxy = -4.49201179574407e-11
pxz = -8.15453399591787e-11
pyz = 2.09702873442201e-11
print "pypospack:output_section:done"
pypospack:output_section:done
print "pypospack:lammps_sim:done"
pypospack:lammps_sim:done
#------------------------------------------------------------------------------
# RUN THERMOSTAT
# running using an NPT Nose-Hoover style thermostat
#------------------------------------------------------------------------------
variable tempdamp equal 0.1
variable pressdamp equal 1.0
# set initial velocities
velocity all create 1700 74519 mom yes dist gaussian loop all
# fix for Nose-Hoover style thermostat
fix 20 all npt temp 1700 1700 0.1 aniso 0.0 0.0 1.0 drag 1.0 couple xyz
variable boxx equal lx
variable boxy equal ly
variable boxz equal lz
variable boxp equal press
variable boxt equal temp
# calculate averages every 10000 steps
reset_timestep 0
fix 21 all ave/time 10 10 100 v_boxx v_boxy v_boxz v_boxp v_boxt file lattice.out
thermo_style custom step temp pe ke etotal press lx ly lz press pxx pyy pzz pxy pxz pyz vol
thermo_modify flush yes
thermo 100
run 100000
PPPM initialization ...
  G vector (1/distance) = 0.352801
  grid = 8 8 8
  stencil order = 5
  estimated absolute RMS force accuracy = 3.76353e-05
  estimated relative force accuracy = 2.61363e-06
  3d grid and FFT values/proc = 3375 512
Step Temp PotEng KinEng TotEng Press Lx Ly Lz Press Pxx Pyy Pzz Pxy Pxz Pyz Volume
0         1700   -108.11055    1.5381957   -106.57235    21774.287     4.226584     4.226584     4.226584    21774.287    16757.619    20217.825    28347.418    4095.5828    13019.518    9314.1972    75.503748
Averages over the last 501 of 1001 rows, steps 50000 to 100000:
Temp PotEng KinEng TotEng Press Lx Ly Lz Press Pxx Pyy Pzz Pxy Pxz Pyz Volume
1704.32 -106.502 1.5421 -104.96 -2515.73 4.30105 4.30105 4.30105 -2515.73 10058.9 -13127.8 -4478.31 -1258.95 875.285 -9254.14 79.5704
Loop time of 22.8067 on 1 procs for 100000 steps with 8 atoms

Pair  time (%) = 7.39136 (32.4087)
Kspce time (%) = 5.36514 (23.5244)
Neigh time (%) = 0.138816 (0.608661)
Comm  time (%) = 1.13538 (4.97828)
Outpt time (%) = 0.0249257 (0.109291)
Other time (%) = 8.75111 (38.3707)

unfix 20
unfix 21
print "seeds:74519"
seeds:74519
