LAMMPS (11 Aug 2017)
# ---- initialize simulations
clear
units metal
dimension 3
boundary p p p
atom_style atomic
atom_modify map array
# ---- create atoms
read_data /home/sullberg/repos/pypospack/examples/Ni__eam__born_exp_rose/01_preconditioning_3.5NN/rank_14/Ni_fcc_100_s.lmps_min_pos/lammps.structure
  triclinic box = (0 0 0) to (8.617 8.617 86.1699) with tilt (0 -0 0)
  reading atoms ...
  20 atoms
# ---- define interatomic potential
include potential.mod
mass 1 58.6934

group Ni type 1
20 atoms in group Ni

pair_style eam/alloy
pair_coeff * * /home/sullberg/repos/pypospack/examples/Ni__eam__born_exp_rose/01_preconditioning_3.5NN/rank_14/Ni_fcc_100_s.lmps_min_pos/Ni.eam.alloy Ni

neighbor 1.0 bin
neigh_modify every 1 delay 0 check yes
# ---- define settings
compute eng all pe/atom
compute eatoms all reduce sum c_eng

# ---- run minimization
reset_timestep 0
thermo 1
thermo_style custom step pe lx ly lz xy xz yz press pxx pyy pzz pxy pxz pyz c_eatoms
min_style cg
minimize 1e-20 1e-20 1000 100000
  update every 1 steps, delay 0 steps, check yes
Step PotEng Lx Ly Lz Xy Xz Yz Press Pxx Pyy Pzz Pxy Pxz Pyz c_eatoms
0   -2.3263568        8.617        8.617      86.1699            0           -0            0   -323.18602    -329.0129    -329.0129   -311.53227 -2.6062981e-14 2.0850385e-14 -9.5564264e-15   -2.3263568
Averages over the last 501 of 1001 rows, steps 500 to 1000:
PotEng Lx Ly Lz Xy Xz Yz Press Pxx Pyy Pzz Pxy Pxz Pyz c_eatoms
-96.487 8.617 8.617 86.1699 0 0 0 8.70998 12.6241 10.8245 2.68138 -0.00268955 0.00367443 -0.374371 -96.487
Loop time of 0.16294 on 1 procs for 1000 steps with 20 atoms

Minimization stats:
  Stopping criterion = max iterations
  Energy initial, next-to-last, final =
  Force two-norm initial, final = 0.0320315 0.0277842
  Force max component initial, final = 0.0160157 0.0115145
  Final line search alpha, max atom move = 0.103809 0.00119531
  Iterations, force evaluations = 1000 1768

# ---- define output variables ----
variable natoms equal "count(all)"
variable tot_energy equal "c_eatoms"
variable a11 equal "xhi-xlo"
variable a22 equal "yhi-ylo"
variable a33 equal "zhi-zlo"
variable tilt_xy equal "xy"
variable tilt_xz equal "xz"
variable tilt_yz equal "yz"
variable tot_press equal "press"
variable press_xx equal "pxx"
variable press_yy equal "pyy"
variable press_zz equal "pzz"
variable press_xy equal "pxy"
variable press_xz equal "pxz"
variable press_yz equal "pyz"

# ---- output ----
print "pypospack:output_section:begin"
pypospack:output_section:begin
tot_energy = -96.4882660678026
num_atoms = 20
a11 = 8.617
a22 = 8.617
a33 = 86.1699
a12 = 0
a13 = -0
a23 = 0
tot_press = 7.05376483751216
pxx = 10.5200157056636
pyy = 12.2503365163871
pzz = -1.60905770951416
pxy = -0.000209106420866766
pxz = 0.000208078915804232
pyz = 3.23367846225542
print "pypospack:output_section:done"
pypospack:output_section:done
print "pypospack:lammps_sim:done"
pypospack:lammps_sim:done
