LAMMPS (11 Aug 2017)
# ---- initialize simulations
clear
units metal
dimension 3
boundary p p p
atom_style atomic
atom_modify map array
# ---- create atoms
read_data /home/sullberg/repos/pypospack/examples/Ni__eam__born_exp_rose/01_preconditioning_3.5NN/rank_8/Ni_hcp.lmps_min_all/lammps.structure
  triclinic box = (0 0 0) to (3.6 6.2354 5.8788) with tilt (0 0 0)
  reading atoms ...
  4 atoms
# ---- define interatomic potential
include potential.mod
mass 1 58.6934

group Ni type 1
4 atoms in group Ni

pair_style eam/alloy
pair_coeff * * /home/sullberg/repos/pypospack/examples/Ni__eam__born_exp_rose/01_preconditioning_3.5NN/rank_8/Ni_hcp.lmps_min_all/Ni.eam.alloy Ni

neighbor 1.0 bin
neigh_modify every 1 delay 0 check yes
# ---- define settings
compute eng all pe/atom
compute eatoms all reduce sum c_eng
# ---- run minimization
reset_timestep 0
fix 1 all box/relax aniso 0.0 vmax 0.001
thermo 10
thermo_style custom step pe xhi xlo yhi ylo zhi xy xz yz press pxx pyy pzz pxy pxz pyz c_eatoms
min_style cg
minimize 1e-25 1e-25 5000 10000
  update every 1 steps, delay 0 steps, check yes
Step PotEng Xhi Xlo Yhi Ylo Zhi Xy Xz Yz Press Pxx Pyy Pzz Pxy Pxz Pyz c_eatoms
0   -6.5811478          3.6            0       6.2354            0       5.8788            0            0            0   -121815.55   -121802.18   -121799.84   -121844.62 -2.7232145e-12 -2.6023299e-12 -4.5867427e-12   -6.5811478
Averages over the last 223 of 446 rows, steps 2230 to 4449:
PotEng Xhi Xlo Yhi Ylo Zhi Xy Xz Yz Press Pxx Pyy Pzz Pxy Pxz Pyz c_eatoms
-54.1657 7.24779 -3.64779 12.4739 -6.23854 3.43497 0 0 0 2198.95 3391.39 3317.24 -111.796 6.53802e-13 -6.30713e-12 8.77055e-12 -54.1657
Loop time of 1.4686 on 1 procs for 4449 steps with 4 atoms

Minimization stats:
  Stopping criterion = max force evaluations
  Energy initial, next-to-last, final =
  Force two-norm initial, final = 17.3783 0.0223488
  Force max component initial, final = 10.0358 0.0156539
  Final line search alpha, max atom move = 0.000495649 7.75884e-06
  Iterations, force evaluations = 4449 10005

# ---- define output variables ----
variable natoms equal "count(all)"
variable tot_energy equal "c_eatoms"
variable a11 equal "xhi-xlo"
variable a22 equal "yhi-ylo"
variable a33 equal "zhi-zlo"
variable tilt_xy equal "xy"
variable tilt_xz equal "xz"
variable tilt_yz equal "yz"
variable tot_press equal "press"
variable press_xx equal "pxx"
variable press_yy equal "pyy"
variable press_zz equal "pzz"
variable press_xy equal "pxy"
variable press_xz equal "pxz"
variable press_yz equal "pyz"

# ---- output ----
print "pypospack:output_section:begin"
pypospack:output_section:begin
tot_energy = -54.2241866849331
num_atoms = 4
a11 = 12.4591220299186
a22 = 21.3857691874342
a33 = 0.990717662346837
a12 = 0
a13 = 0
a23 = 0
tot_press = 151.898882102749
pxx = 238.415224730674
pyy = 233.292926527298
pzz = -16.0115049497238
pxy = 4.31330730996657e-15
pxz = -1.50366661112121e-11
pyz = 4.03228942656086e-12
print "pypospack:output_section:done"
pypospack:output_section:done
print "pypospack:lammps_sim:done"
pypospack:lammps_sim:done
