LAMMPS (11 Aug 2017)
# ---- initialize simulations
clear
units metal
dimension 3
boundary p p p
atom_style atomic
atom_modify map array
# ---- create atoms
read_data /home/sullberg/repos/pypospack/examples/Ni__eam__born_exp_rose/01_preconditioning_3.5NN/rank_34/Ni_fcc_111_unit.lmps_min_all/lammps.structure
  triclinic box = (0 0 0) to (2.4819 4.2987 6.0783) with tilt (0 0 0)
  reading atoms ...
  6 atoms
# ---- define interatomic potential
include potential.mod
mass 1 58.6934

group Ni type 1
6 atoms in group Ni

pair_style eam/alloy
pair_coeff * * /home/sullberg/repos/pypospack/examples/Ni__eam__born_exp_rose/01_preconditioning_3.5NN/rank_34/Ni_fcc_111_unit.lmps_min_all/Ni.eam.alloy Ni

neighbor 1.0 bin
neigh_modify every 1 delay 0 check yes
# ---- define settings
compute eng all pe/atom
compute eatoms all reduce sum c_eng
# ---- run minimization
reset_timestep 0
fix 1 all box/relax aniso 0.0 vmax 0.001
thermo 10
thermo_style custom step pe xhi xlo yhi ylo zhi xy xz yz press pxx pyy pzz pxy pxz pyz c_eatoms
min_style cg
minimize 1e-25 1e-25 5000 10000
  update every 1 steps, delay 0 steps, check yes
Step PotEng Xhi Xlo Yhi Ylo Zhi Xy Xz Yz Press Pxx Pyy Pzz Pxy Pxz Pyz c_eatoms
0   -26.868547       2.4819            0       4.2987            0       6.0783            0            0            0    54843.766    54905.823    54893.103    54732.371 0.0012102857 0.00045330604    3.4328924   -26.868547
Averages over the last 251 of 501 rows, steps 2500 to 5000:
PotEng Xhi Xlo Yhi Ylo Zhi Xy Xz Yz Press Pxx Pyy Pzz Pxy Pxz Pyz c_eatoms
-76.6109 6.55433 -4.07243 4.69312 -0.394419 5.80792 0 0 0 23144.1 56510.3 7718.26 5203.79 2.04664 -4.38987 132696 -76.6109
Loop time of 1.31014 on 1 procs for 5000 steps with 6 atoms

Minimization stats:
  Stopping criterion = max iterations
  Energy initial, next-to-last, final =
  Force two-norm initial, final = 3.84487 0.0601486
  Force max component initial, final = 2.22235 0.025865
  Final line search alpha, max atom move = 0.0104615 0.000270587
  Iterations, force evaluations = 5000 5346

# ---- define output variables ----
variable natoms equal "count(all)"
variable tot_energy equal "c_eatoms"
variable a11 equal "xhi-xlo"
variable a22 equal "yhi-ylo"
variable a33 equal "zhi-zlo"
variable tilt_xy equal "xy"
variable tilt_xz equal "xz"
variable tilt_yz equal "yz"
variable tot_press equal "press"
variable press_xx equal "pxx"
variable press_yy equal "pyy"
variable press_zz equal "pzz"
variable press_xy equal "pxy"
variable press_xz equal "pxz"
variable press_yz equal "pyz"

# ---- output ----
print "pypospack:output_section:begin"
pypospack:output_section:begin
tot_energy = -96.4847087523093
num_atoms = 6
a11 = 12.0061823072575
a22 = 8.42246422233344
a33 = 10.3406474906621
a12 = 0
a13 = 0
a23 = 0
tot_press = 75.4104056324894
pxx = 104.821244589807
pyy = 53.9887175479434
pzz = 67.4212547597175
pxy = -0.291546721752871
pxz = -4.26321423240829
pyz = 12.3330671332178
print "pypospack:output_section:done"
pypospack:output_section:done
print "pypospack:lammps_sim:done"
pypospack:lammps_sim:done
