LAMMPS (11 Aug 2017)
# ---- initialize simulations
clear
units metal
dimension 3
boundary p p p
atom_style atomic
atom_modify map array
# ---- create atoms
read_data /home/sullberg/repos/pypospack/examples/Ni__eam__born_exp_rose/01_preconditioning_3.5NN/rank_46/Ni_fcc_110_unit.lmps_min_all/lammps.structure
  triclinic box = (0 0 0) to (3.4851 2.4947 2.4947) with tilt (0 0 0)
  reading atoms ...
  2 atoms
# ---- define interatomic potential
include potential.mod
mass 1 58.6934

group Ni type 1
2 atoms in group Ni

pair_style eam/alloy
pair_coeff * * /home/sullberg/repos/pypospack/examples/Ni__eam__born_exp_rose/01_preconditioning_3.5NN/rank_46/Ni_fcc_110_unit.lmps_min_all/Ni.eam.alloy Ni

neighbor 1.0 bin
neigh_modify every 1 delay 0 check yes
# ---- define settings
compute eng all pe/atom
compute eatoms all reduce sum c_eng
# ---- run minimization
reset_timestep 0
fix 1 all box/relax aniso 0.0 vmax 0.001
thermo 10
thermo_style custom step pe xhi xlo yhi ylo zhi xy xz yz press pxx pyy pzz pxy pxz pyz c_eatoms
min_style cg
minimize 1e-25 1e-25 5000 10000
  update every 1 steps, delay 0 steps, check yes
Step PotEng Xhi Xlo Yhi Ylo Zhi Xy Xz Yz Press Pxx Pyy Pzz Pxy Pxz Pyz c_eatoms
0   -8.9570107       3.4851            0       2.4947            0       2.4947            0            0            0    20659.689    20448.668    20765.199    20765.199 0.00025410093 0.00025410091 -9.75793e-05   -8.9570107
Averages over the last 251 of 501 rows, steps 2500 to 5000:
PotEng Xhi Xlo Yhi Ylo Zhi Xy Xz Yz Press Pxx Pyy Pzz Pxy Pxz Pyz c_eatoms
-11.5408 6.16992 -2.68482 5.55211 -3.05741 5.55211 0 0 0 4.78499 2.73366 5.81065 5.81065 -0.137519 -0.137519 0.265689 -11.5408
Loop time of 0.211858 on 1 procs for 5000 steps with 2 atoms

Minimization stats:
  Stopping criterion = max iterations
  Energy initial, next-to-last, final =
  Force two-norm initial, final = 0.484437 3.89073e-05
  Force max component initial, final = 0.281111 2.35504e-05
  Final line search alpha, max atom move = 1 2.35504e-05
  Iterations, force evaluations = 5000 6929

# ---- define output variables ----
variable natoms equal "count(all)"
variable tot_energy equal "c_eatoms"
variable a11 equal "xhi-xlo"
variable a22 equal "yhi-ylo"
variable a33 equal "zhi-zlo"
variable tilt_xy equal "xy"
variable tilt_xz equal "xz"
variable tilt_yz equal "yz"
variable tot_press equal "press"
variable press_xx equal "pxx"
variable press_yy equal "pyy"
variable press_zz equal "pzz"
variable press_xy equal "pxy"
variable press_xz equal "pxz"
variable press_yz equal "pyz"

# ---- output ----
print "pypospack:output_section:begin"
pypospack:output_section:begin
tot_energy = -11.5410527415747
num_atoms = 2
a11 = 9.80588941767662
a22 = 9.65696660848679
a33 = 9.65696660848588
a12 = 0
a13 = 0
a23 = 0
tot_press = 0.12763919697022
pxx = 0.0634746056548317
pyy = 0.159721492627982
pzz = 0.159721492627847
pxy = -0.00159670707463622
pxz = -0.00159670707462911
pyz = -5.69885914107907e-05
print "pypospack:output_section:done"
pypospack:output_section:done
print "pypospack:lammps_sim:done"
pypospack:lammps_sim:done
