LAMMPS (11 Aug 2017)
# ---- initialize simulations
clear
units metal
dimension 3
boundary p p p
atom_style atomic
atom_modify map array
# ---- create atoms
read_data /ufrc/phillpot/eragasa/pareto_optimization_3.5NN/rank_15/Ni_dia.lmps_min_all/lammps.structure
  triclinic box = (0 0 0) to (4.8791 4.8791 4.8791) with tilt (0 0 0)
  reading atoms ...
  8 atoms
# ---- define interatomic potential
include potential.mod
mass 1 58.6934

group Ni type 1
8 atoms in group Ni

pair_style eam/alloy
pair_coeff * * /ufrc/phillpot/eragasa/pareto_optimization_3.5NN/rank_15/Ni_dia.lmps_min_all/Ni.eam.alloy Ni

neighbor 1.0 bin
neigh_modify every 1 delay 0 check yes
# ---- define settings
compute eng all pe/atom
compute eatoms all reduce sum c_eng
# ---- run minimization
reset_timestep 0
fix 1 all box/relax aniso 0.0 vmax 0.001
thermo 10
thermo_style custom step pe xhi xlo yhi ylo zhi xy xz yz press pxx pyy pzz pxy pxz pyz c_eatoms
min_style cg
minimize 1e-25 1e-25 5000 10000
  update every 1 steps, delay 0 steps, check yes
Step PotEng Xhi Xlo Yhi Ylo Zhi Xy Xz Yz Press Pxx Pyy Pzz Pxy Pxz Pyz c_eatoms
0   -20.236686       4.8791            0       4.8791            0       4.8791            0            0            0     154538.1     154538.1     154538.1     154538.1   -34.405639   -34.405639   -34.405639   -20.236686
Averages over the last 58 of 116 rows, steps 580 to 1149:
PotEng Xhi Xlo Yhi Ylo Zhi Xy Xz Yz Press Pxx Pyy Pzz Pxy Pxz Pyz c_eatoms
-30.3605 6.30711 -1.42801 3.63626 1.24284 4.54643 0 0 0 10329.5 37560.2 -20817.6 14245.9 -6450.95 -7746 7490.16 -30.3605
Loop time of 0.0353329 on 1 procs for 1149 steps with 8 atoms

Minimization stats:
  Stopping criterion = energy tolerance
  Energy initial, next-to-last, final =
  Force two-norm initial, final = 19.4046 2.296e-12
  Force max component initial, final = 11.2033 1.59765e-12
  Final line search alpha, max atom move = 1 1.59765e-12
  Iterations, force evaluations = 1149 1316

# ---- define output variables ----
variable natoms equal "count(all)"
variable tot_energy equal "c_eatoms"
variable a11 equal "xhi-xlo"
variable a22 equal "yhi-ylo"
variable a33 equal "zhi-zlo"
variable tilt_xy equal "xy"
variable tilt_xz equal "xz"
variable tilt_yz equal "yz"
variable tot_press equal "press"
variable press_xx equal "pxx"
variable press_yy equal "pyy"
variable press_zz equal "pzz"
variable press_xy equal "pxy"
variable press_xz equal "pxz"
variable press_yz equal "pyz"

# ---- output ----
print "pypospack:output_section:begin"
pypospack:output_section:begin
tot_energy = -31.173409932134
num_atoms = 8
a11 = 7.75864550481019
a22 = 2.37285890917734
a33 = 4.10991218988755
a12 = 0
a13 = 0
a23 = 0
tot_press = 8.22714485731154e-09
pxx = -3.84207042833129e-09
pyy = 2.67412450937433e-11
pzz = 2.84967637551722e-08
pxy = -1.11666737754093e-11
pxz = -1.05789541030193e-10
pyz = 5.72527118858683e-09
print "pypospack:output_section:done"
pypospack:output_section:done
print "pypospack:lammps_sim:done"
pypospack:lammps_sim:done
