LAMMPS (10 Feb 2015)
# ---- initialize simulations
clear
units metal
dimension 3
boundary p p p
atom_style charge
atom_modify map array
# ---- create atoms
read_data /Users/eugeneragasa/pyflamestk_git/pypospack/tests/tests_integration/workflow/WorkflowLammpsThermalExpansion/param_2217/MgO_NaCl_unit.npt.T300/lammps.structure
  triclinic box = (0 0 0) to (4.2565 4.2565 4.2565) with tilt (0 0 0)
  reading atoms ...
  8 atoms
# ---- define interatomic potential
include potential.mod
mass 1 24.305
mass 2 15.999

group Mg type 1
4 atoms in group Mg
group O type 2
4 atoms in group O

set group Mg charge 1.63539617609
  4 settings made for charge
set group O charge -1.63539617609
  4 settings made for charge

variable R_cut equal 10.0

pair_style buck/coul/long 10
pair_coeff 1 1 0.0 0.5 0.0 10
pair_coeff 1 2 1445.86118726 0.28350177361 0.0 10
pair_coeff 2 2 14001.7361193 0.0970682303871 13.3227844282 10

kspace_style pppm 1.0e-5

neighbor 1.0 bin
neigh_modify every 1 delay 0 check yes
# ---- define settings
compute eng all pe/atom
compute eatoms all reduce sum c_eng
# ---- run minimization
reset_timestep 0
fix 1 all box/relax iso 0.0 vmax 0.001
thermo 10
thermo_style custom step pe lx ly lz xy xz yz press pxx pyy pzz pxy pxz pyz c_eatoms
min_style cg
minimize 1e-25 1e-25 5000 10000
PPPM initialization ...
  G vector (1/distance) = 0.35265
  grid = 8 8 8
  stencil order = 5
  estimated absolute RMS force accuracy = 3.8734e-05
  estimated relative force accuracy = 2.68993e-06
  3d grid and FFT values/proc = 3375 512
  1 neighbor list requests
  update every 1 steps, delay 0 steps, check yes
Step PotEng Lx Ly Lz Xy Xz Yz Press Pxx Pyy Pzz Pxy Pxz Pyz eatoms
0   -107.83625       4.2565       4.2565       4.2565            0            0            0    103722.55    103722.55    103722.55    103722.55 -7.9651797e-11 -6.6040977e-11 3.4954802e-10   -107.83625
Loop time of 0.016448 on 1 procs for 24 steps with 8 atoms

Minimization stats:
  Stopping criterion = linesearch alpha is zero
  Energy initial, next-to-last, final =
  Force two-norm initial, final = 14.9776 3.56003e-06
  Force max component initial, final = 14.9776 3.3258e-06
  Final line search alpha, max atom move = 0.5 1.6629e-06
  Iterations, force evaluations = 24 36

Pair  time (%) = 0.00436544 (26.5408)
Kspce time (%) = 0.00283504 (17.2363)
Neigh time (%) = 0 (0)
Comm  time (%) = 0.000506163 (3.07735)
Outpt time (%) = 5.98431e-05 (0.363831)
Other time (%) = 0.00868154 (52.7816)

unfix 1
# ---- define output variables ----
variable natoms equal "count(all)"
variable tot_energy equal "c_eatoms"
variable length_x equal "lx"
variable length_y equal "ly"
variable length_z equal "lz"
variable tilt_xy equal "xy"
variable tilt_xz equal "xz"
variable tilt_yz equal "yz"
variable tot_press equal "press"
variable press_xx equal "pxx"
variable press_yy equal "pyy"
variable press_zz equal "pzz"
variable press_xy equal "pxy"
variable press_xz equal "pxz"
variable press_yz equal "pyz"

# ---- output ----
print "pypospack:output_section:begin"
pypospack:output_section:begin
tot_energy = -107.981002151143
num_atoms = 8
xx = 4.34161184326772
yy = 4.34161184326772
zz = 4.34161184326772
xy = 0
xz = 0
yz = 0
tot_press = -0.0221375810241508
pxx = -0.0221375810918532
pyy = -0.0221375807194137
pzz = -0.0221375812611855
pxy = -7.28663154154814e-11
pxz = -1.13535727889352e-10
pyz = -3.13415884666446e-11
print "pypospack:output_section:done"
pypospack:output_section:done
print "pypospack:lammps_sim:done"
pypospack:lammps_sim:done
#------------------------------------------------------------------------------
# RUN THERMOSTAT
# running using an NPT Nose-Hoover style thermostat
#------------------------------------------------------------------------------
variable tempdamp equal 0.1
variable pressdamp equal 1.0
# set initial velocities
velocity all create 300 8050263 mom yes dist gaussian loop all
# fix for Nose-Hoover style thermostat
fix 20 all npt temp 300 300 0.1 aniso 0.0 0.0 1.0 drag 1.0 couple xyz
variable boxx equal lx
variable boxy equal ly
variable boxz equal lz
variable boxp equal press
variable boxt equal temp
# calculate averages every 10000 steps
reset_timestep 0
fix 21 all ave/time 10 10 100 v_boxx v_boxy v_boxz v_boxp v_boxt file lattice.out
thermo_style custom step temp pe ke etotal press lx ly lz press pxx pyy pzz pxy pxz pyz vol
thermo_modify flush yes
thermo 100
run 100000
PPPM initialization ...
  G vector (1/distance) = 0.3518
  grid = 8 8 8
  stencil order = 5
  estimated absolute RMS force accuracy = 4.02804e-05
  estimated relative force accuracy = 2.79732e-06
  3d grid and FFT values/proc = 3375 512
Step Temp PotEng KinEng TotEng Press Lx Ly Lz Press Pxx Pyy Pzz Pxy Pxz Pyz Volume
0          300   -107.98101    0.2714463   -107.70957    3540.7898    4.3416118    4.3416118    4.3416118    3540.7898    2213.1214    1055.8059    7353.4421    840.40026   -585.92924    687.34306    81.837618
Averages over the last 501 of 1001 rows, steps 50000 to 100000:
Temp PotEng KinEng TotEng Press Lx Ly Lz Press Pxx Pyy Pzz Pxy Pxz Pyz Volume
299.708 -107.71 0.271182 -107.439 -433.222 4.35588 4.35588 4.35588 -433.222 1366.9 -8879.23 6212.67 -103.36 1347.27 -123.226 82.6472
Loop time of 21.6871 on 1 procs for 100000 steps with 8 atoms

Pair  time (%) = 6.64697 (30.6494)
Kspce time (%) = 5.32119 (24.5362)
Neigh time (%) = 0 (0)
Comm  time (%) = 1.06644 (4.91738)
Outpt time (%) = 0.0237496 (0.10951)
Other time (%) = 8.62876 (39.7875)

unfix 20
unfix 21
print "seeds:8050263"
seeds:8050263
