LAMMPS (11 Aug 2017)
# ---- initialize simulations
clear
units metal
dimension 3
boundary p p p
atom_style atomic
atom_modify map array
# ---- create atoms
read_data /home/sullberg/repos/pypospack/examples/Ni__eam__born_exp_rose/01_preconditioning_3.5NN/rank_46/Ni_fcc_100_s.lmps_min_pos/lammps.structure
  triclinic box = (0 0 0) to (9.202 9.202 92.0195) with tilt (0 -0 0)
  reading atoms ...
  20 atoms
# ---- define interatomic potential
include potential.mod
mass 1 58.6934

group Ni type 1
20 atoms in group Ni

pair_style eam/alloy
pair_coeff * * /home/sullberg/repos/pypospack/examples/Ni__eam__born_exp_rose/01_preconditioning_3.5NN/rank_46/Ni_fcc_100_s.lmps_min_pos/Ni.eam.alloy Ni

neighbor 1.0 bin
neigh_modify every 1 delay 0 check yes
# ---- define settings
compute eng all pe/atom
compute eatoms all reduce sum c_eng

# ---- run minimization
reset_timestep 0
thermo 1
thermo_style custom step pe lx ly lz xy xz yz press pxx pyy pzz pxy pxz pyz c_eatoms
min_style cg
minimize 1e-20 1e-20 1000 100000
  update every 1 steps, delay 0 steps, check yes
Step PotEng Lx Ly Lz Xy Xz Yz Press Pxx Pyy Pzz Pxy Pxz Pyz c_eatoms
0   -1.8735523        9.202        9.202      92.0195            0           -0            0    -153.6005   -156.36865   -156.36865   -148.06419 -6.7771935e-15 2.4968608e-15 3.9236384e-15   -1.8735523
Averages over the last 501 of 1001 rows, steps 500 to 1000:
PotEng Lx Ly Lz Xy Xz Yz Press Pxx Pyy Pzz Pxy Pxz Pyz c_eatoms
-3.96088 9.202 9.202 92.0195 0 0 0 -1275.77 -1913.4 -1913.4 -0.518093 2.18716e-15 1.10785e-18 1.10505e-18 -3.96088
Loop time of 0.065825 on 1 procs for 1000 steps with 20 atoms

Minimization stats:
  Stopping criterion = max iterations
  Energy initial, next-to-last, final =
  Force two-norm initial, final = 0.0173607 4.43297e-05
  Force max component initial, final = 0.00868031 1.45305e-05
  Final line search alpha, max atom move = 1 1.45305e-05
  Iterations, force evaluations = 1000 1000

# ---- define output variables ----
variable natoms equal "count(all)"
variable tot_energy equal "c_eatoms"
variable a11 equal "xhi-xlo"
variable a22 equal "yhi-ylo"
variable a33 equal "zhi-zlo"
variable tilt_xy equal "xy"
variable tilt_xz equal "xz"
variable tilt_yz equal "yz"
variable tot_press equal "press"
variable press_xx equal "pxx"
variable press_yy equal "pyy"
variable press_zz equal "pzz"
variable press_xy equal "pxy"
variable press_xz equal "pxz"
variable press_yz equal "pyz"

# ---- output ----
print "pypospack:output_section:begin"
pypospack:output_section:begin
tot_energy = -3.96088399089374
num_atoms = 20
a11 = 9.202
a22 = 9.202
a33 = 92.0195
a12 = 0
a13 = -0
a23 = 0
tot_press = -1275.77366004619
pxx = -1913.40044801602
pyy = -1913.40044801602
pzz = -0.52008410654578
pxy = 4.5656882689886e-14
pxz = 8.12315402502672e-18
pyz = 8.08899756705631e-18
print "pypospack:output_section:done"
pypospack:output_section:done
print "pypospack:lammps_sim:done"
pypospack:lammps_sim:done
