LAMMPS (10 Feb 2015)
# ---- initialize simulations
clear
units metal
dimension 3
boundary p p p
atom_style charge
atom_modify map array
# ---- create atoms
read_data /Users/eugeneragasa/pyflamestk_git/pypospack/tests/tests_integration/workflow/WorkflowLammpsThermalExpansion/param_8221/MgO_NaCl_unit.npt.T1700/lammps.structure
  triclinic box = (0 0 0) to (4.2565 4.2565 4.2565) with tilt (0 0 0)
  reading atoms ...
  8 atoms
# ---- define interatomic potential
include potential.mod
mass 1 24.305
mass 2 15.999

group Mg type 1
4 atoms in group Mg
group O type 2
4 atoms in group O

set group Mg charge 1.65389423724
  4 settings made for charge
set group O charge -1.65389423724
  4 settings made for charge

variable R_cut equal 10.0

pair_style buck/coul/long 10
pair_coeff 1 1 0.0 0.5 0.0 10
pair_coeff 1 2 1300.0678519 0.288744572517 0.0 10
pair_coeff 2 2 40472.9144105 0.202420171096 26.2679081719 10

kspace_style pppm 1.0e-5

neighbor 1.0 bin
neigh_modify every 1 delay 0 check yes
# ---- define settings
compute eng all pe/atom
compute eatoms all reduce sum c_eng
# ---- run minimization
reset_timestep 0
fix 1 all box/relax iso 0.0 vmax 0.001
thermo 10
thermo_style custom step pe lx ly lz xy xz yz press pxx pyy pzz pxy pxz pyz c_eatoms
min_style cg
minimize 1e-25 1e-25 5000 10000
PPPM initialization ...
  G vector (1/distance) = 0.352799
  grid = 8 8 8
  stencil order = 5
  estimated absolute RMS force accuracy = 3.93787e-05
  estimated relative force accuracy = 2.7347e-06
  3d grid and FFT values/proc = 3375 512
  1 neighbor list requests
  update every 1 steps, delay 0 steps, check yes
Step PotEng Lx Ly Lz Xy Xz Yz Press Pxx Pyy Pzz Pxy Pxz Pyz eatoms
0   -110.27609       4.2565       4.2565       4.2565            0            0            0    110960.29    110960.29    110960.29    110960.29 9.3314123e-11 1.6239754e-10 5.8891323e-11   -110.27609
Loop time of 0.0140922 on 1 procs for 22 steps with 8 atoms

Minimization stats:
  Stopping criterion = linesearch alpha is zero
  Energy initial, next-to-last, final =
  Force two-norm initial, final = 16.0227 0.00180648
  Force max component initial, final = 16.0227 0.000859982
  Final line search alpha, max atom move = 0.00390625 3.35931e-06
  Iterations, force evaluations = 22 39

Pair  time (%) = 0.00390697 (27.7243)
Kspce time (%) = 0.0022018 (15.6242)
Neigh time (%) = 0 (0)
Comm  time (%) = 0.000432253 (3.06732)
Outpt time (%) = 4.50611e-05 (0.319759)
Other time (%) = 0.00750613 (53.2644)

unfix 1
# ---- define output variables ----
variable natoms equal "count(all)"
variable tot_energy equal "c_eatoms"
variable length_x equal "lx"
variable length_y equal "ly"
variable length_z equal "lz"
variable tilt_xy equal "xy"
variable tilt_xz equal "xz"
variable tilt_yz equal "yz"
variable tot_press equal "press"
variable press_xx equal "pxx"
variable press_yy equal "pyy"
variable press_zz equal "pzz"
variable press_xy equal "pxy"
variable press_xz equal "pxz"
variable press_yz equal "pyz"

# ---- output ----
print "pypospack:output_section:begin"
pypospack:output_section:begin
tot_energy = -110.433524975286
num_atoms = 8
xx = 4.34351296178449
yy = 4.34351296178449
zz = 4.34351296178449
xy = 0
xz = 0
yz = 0
tot_press = -5.71931225965551
pxx = -5.71931225981032
pyy = -5.71931225968463
pzz = -5.71931225947158
pxy = 4.5865850341772e-11
pxz = 9.06207702771322e-11
pyz = 2.62492238241466e-10
print "pypospack:output_section:done"
pypospack:output_section:done
print "pypospack:lammps_sim:done"
pypospack:lammps_sim:done
#------------------------------------------------------------------------------
# RUN THERMOSTAT
# running using an NPT Nose-Hoover style thermostat
#------------------------------------------------------------------------------
variable tempdamp equal 0.1
variable pressdamp equal 1.0
# set initial velocities
velocity all create 1700 2527231 mom yes dist gaussian loop all
# fix for Nose-Hoover style thermostat
fix 20 all npt temp 1700 1700 0.1 aniso 0.0 0.0 1.0 drag 1.0 couple xyz
variable boxx equal lx
variable boxy equal ly
variable boxz equal lz
variable boxp equal press
variable boxt equal temp
# calculate averages every 10000 steps
reset_timestep 0
fix 21 all ave/time 10 10 100 v_boxx v_boxy v_boxz v_boxp v_boxt file lattice.out
thermo_style custom step temp pe ke etotal press lx ly lz press pxx pyy pzz pxy pxz pyz vol
thermo_modify flush yes
thermo 100
run 100000
PPPM initialization ...
  G vector (1/distance) = 0.351923
  grid = 8 8 8
  stencil order = 5
  estimated absolute RMS force accuracy = 4.10067e-05
  estimated relative force accuracy = 2.84776e-06
  3d grid and FFT values/proc = 3375 512
Step Temp PotEng KinEng TotEng Press Lx Ly Lz Press Pxx Pyy Pzz Pxy Pxz Pyz Volume
0         1700   -110.43354    1.5381957   -108.89534     20041.88     4.343513     4.343513     4.343513     20041.88    4348.6432    37979.768    17797.231   -4090.5187    -6907.077   -243.55657    81.945171
Averages over the last 501 of 1001 rows, steps 50000 to 100000:
Temp PotEng KinEng TotEng Press Lx Ly Lz Press Pxx Pyy Pzz Pxy Pxz Pyz Volume
1701.72 -108.84 1.53975 -107.3 -3052.87 4.38708 4.38708 4.38708 -3052.87 -3248.38 -8492 2581.78 2587.83 -4009.58 2220.99 84.4372
Loop time of 22.5727 on 1 procs for 100000 steps with 8 atoms

Pair  time (%) = 6.79816 (30.1168)
Kspce time (%) = 5.56432 (24.6507)
Neigh time (%) = 0.23063 (1.02172)
Comm  time (%) = 0.979629 (4.33989)
Outpt time (%) = 0.0290444 (0.128671)
Other time (%) = 8.97088 (39.7422)

unfix 20
unfix 21
print "seeds:2527231"
seeds:2527231
