LAMMPS (10 Feb 2015)
# ---- initialize simulations
clear
units metal
dimension 3
boundary p p p
atom_style charge
atom_modify map array
# ---- create atoms
read_data /Users/eugeneragasa/pyflamestk_git/pypospack/tests/tests_integration/workflow/WorkflowLammpsThermalExpansion/param_1902/MgO_NaCl_unit.npt.T1100/lammps.structure
  triclinic box = (0 0 0) to (4.2565 4.2565 4.2565) with tilt (0 0 0)
  reading atoms ...
  8 atoms
# ---- define interatomic potential
include potential.mod
mass 1 24.305
mass 2 15.999

group Mg type 1
4 atoms in group Mg
group O type 2
4 atoms in group O

set group Mg charge 1.69754800024
  4 settings made for charge
set group O charge -1.69754800024
  4 settings made for charge

variable R_cut equal 10.0

pair_style buck/coul/long 10
pair_coeff 1 1 0.0 0.5 0.0 10
pair_coeff 1 2 1340.93810979 0.285979914483 0.0 10
pair_coeff 2 2 11096.6994948 0.145827000496 3.24328494634 10

kspace_style pppm 1.0e-5

neighbor 1.0 bin
neigh_modify every 1 delay 0 check yes
# ---- define settings
compute eng all pe/atom
compute eatoms all reduce sum c_eng
# ---- run minimization
reset_timestep 0
fix 1 all box/relax iso 0.0 vmax 0.001
thermo 10
thermo_style custom step pe lx ly lz xy xz yz press pxx pyy pzz pxy pxz pyz c_eatoms
min_style cg
minimize 1e-25 1e-25 5000 10000
PPPM initialization ...
  G vector (1/distance) = 0.353134
  grid = 8 8 8
  stencil order = 5
  estimated absolute RMS force accuracy = 4.09436e-05
  estimated relative force accuracy = 2.84338e-06
  3d grid and FFT values/proc = 3375 512
  1 neighbor list requests
  update every 1 steps, delay 0 steps, check yes
Step PotEng Lx Ly Lz Xy Xz Yz Press Pxx Pyy Pzz Pxy Pxz Pyz eatoms
0   -117.43599       4.2565       4.2565       4.2565            0            0            0    33717.192    33717.192    33717.192    33717.192 -3.1023281e-11 -2.4163961e-10 -2.0934262e-10   -117.43599
Loop time of 0.00862002 on 1 procs for 8 steps with 8 atoms

Minimization stats:
  Stopping criterion = linesearch alpha is zero
  Energy initial, next-to-last, final =
  Force two-norm initial, final = 4.86878 0.0018005
  Force max component initial, final = 4.86878 0.000733039
  Final line search alpha, max atom move = 0.00390625 2.86343e-06
  Iterations, force evaluations = 8 25

Pair  time (%) = 0.00235295 (27.2964)
Kspce time (%) = 0.0013907 (16.1333)
Neigh time (%) = 0 (0)
Comm  time (%) = 0.000264883 (3.07288)
Outpt time (%) = 0 (0)
Other time (%) = 0.00461149 (53.4974)

unfix 1
# ---- define output variables ----
variable natoms equal "count(all)"
variable tot_energy equal "c_eatoms"
variable length_x equal "lx"
variable length_y equal "ly"
variable length_z equal "lz"
variable tilt_xy equal "xy"
variable tilt_xz equal "xz"
variable tilt_yz equal "yz"
variable tot_press equal "press"
variable press_xx equal "pxx"
variable press_yy equal "pyy"
variable press_zz equal "pzz"
variable press_xy equal "pxy"
variable press_xz equal "pxz"
variable press_yz equal "pyz"

# ---- output ----
print "pypospack:output_section:begin"
pypospack:output_section:begin
tot_energy = -117.45138304358
num_atoms = 8
xx = 4.28358206284588
yy = 4.28358206284588
zz = 4.28358206284588
xy = 0
xz = 0
yz = 0
tot_press = -5.01243937142067
pxx = -5.01243937108414
pyy = -5.01243937158826
pzz = -5.01243937158962
pxy = 6.8970477610601e-11
pxz = -1.44425666326158e-10
pyz = -9.76593698696591e-11
print "pypospack:output_section:done"
pypospack:output_section:done
print "pypospack:lammps_sim:done"
pypospack:lammps_sim:done
#------------------------------------------------------------------------------
# RUN THERMOSTAT
# running using an NPT Nose-Hoover style thermostat
#------------------------------------------------------------------------------
variable tempdamp equal 0.1
variable pressdamp equal 1.0
# set initial velocities
velocity all create 1100 3637999 mom yes dist gaussian loop all
# fix for Nose-Hoover style thermostat
fix 20 all npt temp 1100 1100 0.1 aniso 0.0 0.0 1.0 drag 1.0 couple xyz
variable boxx equal lx
variable boxy equal ly
variable boxz equal lz
variable boxp equal press
variable boxt equal temp
# calculate averages every 10000 steps
reset_timestep 0
fix 21 all ave/time 10 10 100 v_boxx v_boxy v_boxz v_boxp v_boxt file lattice.out
thermo_style custom step temp pe ke etotal press lx ly lz press pxx pyy pzz pxy pxz pyz vol
thermo_modify flush yes
thermo 100
run 100000
PPPM initialization ...
  G vector (1/distance) = 0.352856
  grid = 8 8 8
  stencil order = 5
  estimated absolute RMS force accuracy = 4.14735e-05
  estimated relative force accuracy = 2.88018e-06
  3d grid and FFT values/proc = 3375 512
Step Temp PotEng KinEng TotEng Press Lx Ly Lz Press Pxx Pyy Pzz Pxy Pxz Pyz Volume
0         1100   -117.45139   0.99530312   -116.45609    13519.514    4.2835821    4.2835821    4.2835821    13519.514    9236.8747    6702.1741    24619.494   -1868.3287   -2781.5047        -8749     78.59977
Averages over the last 501 of 1001 rows, steps 50000 to 100000:
Temp PotEng KinEng TotEng Press Lx Ly Lz Press Pxx Pyy Pzz Pxy Pxz Pyz Volume
1157.55 -116.491 1.04737 -115.444 -1087.49 4.30347 4.30347 4.30347 -1087.49 -7519.45 -767.438 5024.43 1161.96 -646.559 -2084.94 79.7002
Loop time of 22.5293 on 1 procs for 100000 steps with 8 atoms

Pair  time (%) = 7.18438 (31.889)
Kspce time (%) = 5.40394 (23.9862)
Neigh time (%) = 0 (0)
Comm  time (%) = 1.10027 (4.88373)
Outpt time (%) = 0.0239713 (0.1064)
Other time (%) = 8.81678 (39.1347)

unfix 20
unfix 21
print "seeds:3637999"
seeds:3637999
