LAMMPS (11 Aug 2017)
# ---- initialize simulations
clear
units metal
dimension 3
boundary p p p
atom_style atomic
atom_modify map array
# ---- create atoms
read_data /ufrc/phillpot/eragasa/pareto_optimization_3.5NN/rank_16/Ni_dia.lmps_min_all/lammps.structure
  triclinic box = (0 0 0) to (4.8791 4.8791 4.8791) with tilt (0 0 0)
  reading atoms ...
  8 atoms
# ---- define interatomic potential
include potential.mod
mass 1 58.6934

group Ni type 1
8 atoms in group Ni

pair_style eam/alloy
pair_coeff * * /ufrc/phillpot/eragasa/pareto_optimization_3.5NN/rank_16/Ni_dia.lmps_min_all/Ni.eam.alloy Ni

neighbor 1.0 bin
neigh_modify every 1 delay 0 check yes
# ---- define settings
compute eng all pe/atom
compute eatoms all reduce sum c_eng
# ---- run minimization
reset_timestep 0
fix 1 all box/relax aniso 0.0 vmax 0.001
thermo 10
thermo_style custom step pe xhi xlo yhi ylo zhi xy xz yz press pxx pyy pzz pxy pxz pyz c_eatoms
min_style cg
minimize 1e-25 1e-25 5000 10000
  update every 1 steps, delay 0 steps, check yes
Step PotEng Xhi Xlo Yhi Ylo Zhi Xy Xz Yz Press Pxx Pyy Pzz Pxy Pxz Pyz c_eatoms
0   -27.467782       4.8791            0       4.8791            0       4.8791            0            0            0   -20348.185   -20348.185   -20348.185   -20348.185   -16.663549   -16.663549   -16.663549   -27.467782
Averages over the last 77 of 153 rows, steps 760 to 1513:
PotEng Xhi Xlo Yhi Ylo Zhi Xy Xz Yz Press Pxx Pyy Pzz Pxy Pxz Pyz c_eatoms
-37.0625 6.22476 -1.34566 4.52759 0.351506 3.58123 0 0 0 3273.22 25897.3 -16336.6 258.889 -952.968 123.522 9041.98 -37.0625
Loop time of 0.0520489 on 1 procs for 1513 steps with 8 atoms

Minimization stats:
  Stopping criterion = energy tolerance
  Energy initial, next-to-last, final =
  Force two-norm initial, final = 2.55503 1.25983e-12
  Force max component initial, final = 1.47514 1.0475e-12
  Final line search alpha, max atom move = 1 1.0475e-12
  Iterations, force evaluations = 1513 1790

# ---- define output variables ----
variable natoms equal "count(all)"
variable tot_energy equal "c_eatoms"
variable a11 equal "xhi-xlo"
variable a22 equal "yhi-ylo"
variable a33 equal "zhi-zlo"
variable tilt_xy equal "xy"
variable tilt_xz equal "xz"
variable tilt_yz equal "yz"
variable tot_press equal "press"
variable press_xx equal "pxx"
variable press_yy equal "pyy"
variable press_zz equal "pzz"
variable press_xy equal "pxy"
variable press_xz equal "pxz"
variable press_yz equal "pyz"

# ---- output ----
print "pypospack:output_section:begin"
pypospack:output_section:begin
tot_energy = -37.4204694553345
num_atoms = 8
a11 = 7.60405079448157
a22 = 4.03133947683288
a33 = 2.32749493214429
a12 = 0
a13 = 0
a23 = 0
tot_press = 1.1601027908794e-08
pxx = 3.66594987552626e-08
pyy = 2.71123228995493e-11
pzz = -1.88352735178018e-09
pxy = 1.99446973054156e-11
pxz = -2.8982138271932e-11
pyz = -1.22048302983589e-09
print "pypospack:output_section:done"
pypospack:output_section:done
print "pypospack:lammps_sim:done"
pypospack:lammps_sim:done
