LAMMPS (11 Aug 2017)
# ---- initialize simulations
clear
units metal
dimension 3
boundary p p p
atom_style atomic
atom_modify map array
# ---- create atoms
read_data /home/sullberg/repos/pypospack/examples/Ni__eam__born_exp_rose/01_preconditioning_3.5NN/rank_5/Ni_fcc_110_unit.lmps_min_all/lammps.structure
  triclinic box = (0 0 0) to (3.4851 2.4947 2.4947) with tilt (0 0 0)
  reading atoms ...
  2 atoms
# ---- define interatomic potential
include potential.mod
mass 1 58.6934

group Ni type 1
2 atoms in group Ni

pair_style eam/alloy
pair_coeff * * /home/sullberg/repos/pypospack/examples/Ni__eam__born_exp_rose/01_preconditioning_3.5NN/rank_5/Ni_fcc_110_unit.lmps_min_all/Ni.eam.alloy Ni

neighbor 1.0 bin
neigh_modify every 1 delay 0 check yes
# ---- define settings
compute eng all pe/atom
compute eatoms all reduce sum c_eng
# ---- run minimization
reset_timestep 0
fix 1 all box/relax aniso 0.0 vmax 0.001
thermo 10
thermo_style custom step pe xhi xlo yhi ylo zhi xy xz yz press pxx pyy pzz pxy pxz pyz c_eatoms
min_style cg
minimize 1e-25 1e-25 5000 10000
  update every 1 steps, delay 0 steps, check yes
Step PotEng Xhi Xlo Yhi Ylo Zhi Xy Xz Yz Press Pxx Pyy Pzz Pxy Pxz Pyz c_eatoms
0   -11.750909       3.4851            0       2.4947            0       2.4947            0            0            0    69610.821    68606.542    70112.961    70112.961 0.0011315858 0.0011315858 -0.00044862527   -11.750909
Averages over the last 251 of 501 rows, steps 2500 to 5000:
PotEng Xhi Xlo Yhi Ylo Zhi Xy Xz Yz Press Pxx Pyy Pzz Pxy Pxz Pyz c_eatoms
-22.2286 6.11723 -2.63213 5.48036 -2.98566 5.48036 0 0 0 4.27395 2.68392 5.06896 5.06896 -0.139223 -0.139223 0.126543 -22.2286
Loop time of 0.249987 on 1 procs for 5000 steps with 2 atoms

Minimization stats:
  Stopping criterion = max iterations
  Energy initial, next-to-last, final =
  Force two-norm initial, final = 1.63231 0.000645682
  Force max component initial, final = 0.949161 0.000271645
  Final line search alpha, max atom move = 1 0.000271645
  Iterations, force evaluations = 5000 6805

# ---- define output variables ----
variable natoms equal "count(all)"
variable tot_energy equal "c_eatoms"
variable a11 equal "xhi-xlo"
variable a22 equal "yhi-ylo"
variable a33 equal "zhi-zlo"
variable tilt_xy equal "xy"
variable tilt_xz equal "xz"
variable tilt_yz equal "yz"
variable tot_press equal "press"
variable press_xx equal "pxx"
variable press_yy equal "pyy"
variable press_zz equal "pzz"
variable press_xy equal "pxy"
variable press_xz equal "pxz"
variable press_yz equal "pyz"

# ---- output ----
print "pypospack:output_section:begin"
pypospack:output_section:begin
tot_energy = -22.2288643671739
num_atoms = 2
a11 = 9.65043005138234
a22 = 9.3970651299688
a33 = 9.3970651299691
a12 = 0
a13 = 0
a23 = 0
tot_press = -0.0599992700751235
pxx = -0.101791929713552
pyy = -0.0391029402555765
pzz = -0.0391029402562418
pxy = 0.215664596661384
pxz = 0.215664596661692
pyz = -0.237828330862905
print "pypospack:output_section:done"
pypospack:output_section:done
print "pypospack:lammps_sim:done"
pypospack:lammps_sim:done
