LAMMPS (10 Feb 2015)
# ---- initialize simulations
clear
units metal
dimension 3
boundary p p p
atom_style charge
atom_modify map array
# ---- create atoms
read_data /Users/eugeneragasa/pyflamestk_git/pypospack/tests/tests_integration/workflow/WorkflowLammpsThermalExpansion/param_5378/MgO_NaCl_unit.npt.T500/lammps.structure
  triclinic box = (0 0 0) to (4.2565 4.2565 4.2565) with tilt (0 0 0)
  reading atoms ...
  8 atoms
# ---- define interatomic potential
include potential.mod
mass 1 24.305
mass 2 15.999

group Mg type 1
4 atoms in group Mg
group O type 2
4 atoms in group O

set group Mg charge 1.67557694923
  4 settings made for charge
set group O charge -1.67557694923
  4 settings made for charge

variable R_cut equal 10.0

pair_style buck/coul/long 10
pair_coeff 1 1 0.0 0.5 0.0 10
pair_coeff 1 2 1405.50211521 0.282257384366 0.0 10
pair_coeff 2 2 19860.1058829 0.143671361936 6.84969713079 10

kspace_style pppm 1.0e-5

neighbor 1.0 bin
neigh_modify every 1 delay 0 check yes
# ---- define settings
compute eng all pe/atom
compute eatoms all reduce sum c_eng
# ---- run minimization
reset_timestep 0
fix 1 all box/relax iso 0.0 vmax 0.001
thermo 10
thermo_style custom step pe lx ly lz xy xz yz press pxx pyy pzz pxy pxz pyz c_eatoms
min_style cg
minimize 1e-25 1e-25 5000 10000
PPPM initialization ...
  G vector (1/distance) = 0.352969
  grid = 8 8 8
  stencil order = 5
  estimated absolute RMS force accuracy = 4.01483e-05
  estimated relative force accuracy = 2.78815e-06
  3d grid and FFT values/proc = 3375 512
  1 neighbor list requests
  update every 1 steps, delay 0 steps, check yes
Step PotEng Lx Ly Lz Xy Xz Yz Press Pxx Pyy Pzz Pxy Pxz Pyz eatoms
0   -115.02334       4.2565       4.2565       4.2565            0            0            0    14836.064    14836.064    14836.064    14836.064 5.7083842e-11 -5.8546636e-11 3.613515e-11   -115.02334
Loop time of 0.00710607 on 1 procs for 4 steps with 8 atoms

Minimization stats:
  Stopping criterion = linesearch alpha is zero
  Energy initial, next-to-last, final =
  Force two-norm initial, final = 2.14234 0.00179672
  Force max component initial, final = 2.14234 0.000546963
  Final line search alpha, max atom move = 0.00390625 2.13657e-06
  Iterations, force evaluations = 4 21

Pair  time (%) = 0.00197244 (27.7571)
Kspce time (%) = 0.00113058 (15.9101)
Neigh time (%) = 0 (0)
Comm  time (%) = 0.000217676 (3.06324)
Outpt time (%) = 0 (0)
Other time (%) = 0.00378537 (53.2696)

unfix 1
# ---- define output variables ----
variable natoms equal "count(all)"
variable tot_energy equal "c_eatoms"
variable length_x equal "lx"
variable length_y equal "ly"
variable length_z equal "lz"
variable tilt_xy equal "xy"
variable tilt_xz equal "xz"
variable tilt_yz equal "yz"
variable tot_press equal "press"
variable press_xx equal "pxx"
variable press_yy equal "pyy"
variable press_zz equal "pzz"
variable press_xy equal "pxy"
variable press_xz equal "pxz"
variable press_yz equal "pyz"

# ---- output ----
print "pypospack:output_section:begin"
pypospack:output_section:begin
tot_energy = -115.026292700229
num_atoms = 8
xx = 4.26862697136346
yy = 4.26862697136346
zz = 4.26862697136346
xy = 0
xz = 0
yz = 0
tot_press = -3.7663252179344
pxx = -3.76632521787482
pyy = -3.76632521789834
pzz = -3.76632521803003
pxy = 5.53646482695888e-11
pxz = -5.12622707696674e-11
pyz = 1.39112332535826e-11
print "pypospack:output_section:done"
pypospack:output_section:done
print "pypospack:lammps_sim:done"
pypospack:lammps_sim:done
#------------------------------------------------------------------------------
# RUN THERMOSTAT
# running using an NPT Nose-Hoover style thermostat
#------------------------------------------------------------------------------
variable tempdamp equal 0.1
variable pressdamp equal 1.0
# set initial velocities
velocity all create 500 3309439 mom yes dist gaussian loop all
# fix for Nose-Hoover style thermostat
fix 20 all npt temp 500 500 0.1 aniso 0.0 0.0 1.0 drag 1.0 couple xyz
variable boxx equal lx
variable boxy equal ly
variable boxz equal lz
variable boxp equal press
variable boxt equal temp
# calculate averages every 10000 steps
reset_timestep 0
fix 21 all ave/time 10 10 100 v_boxx v_boxy v_boxz v_boxp v_boxt file lattice.out
thermo_style custom step temp pe ke etotal press lx ly lz press pxx pyy pzz pxy pxz pyz vol
thermo_modify flush yes
thermo 100
run 100000
PPPM initialization ...
  G vector (1/distance) = 0.352845
  grid = 8 8 8
  stencil order = 5
  estimated absolute RMS force accuracy = 4.03767e-05
  estimated relative force accuracy = 2.80401e-06
  3d grid and FFT values/proc = 3375 512
Step Temp PotEng KinEng TotEng Press Lx Ly Lz Press Pxx Pyy Pzz Pxy Pxz Pyz Volume
0          500    -115.0263   0.45241051   -114.57388    6208.5696     4.268627     4.268627     4.268627    6208.5696    6844.3339    7550.8516    4230.5233      1511.11   -2989.0694    351.03622    77.779404
Averages over the last 501 of 1001 rows, steps 50000 to 100000:
Temp PotEng KinEng TotEng Press Lx Ly Lz Press Pxx Pyy Pzz Pxy Pxz Pyz Volume
499.821 -114.57 0.452249 -114.117 -715.462 4.28205 4.28205 4.28205 -715.462 -4369.43 -1093.49 3316.53 -1025.92 -142.33 1409.22 78.5157
Loop time of 22.7574 on 1 procs for 100000 steps with 8 atoms

Pair  time (%) = 7.51618 (33.0273)
Kspce time (%) = 5.39026 (23.6857)
Neigh time (%) = 0 (0)
Comm  time (%) = 1.07707 (4.73284)
Outpt time (%) = 0.0264344 (0.116157)
Other time (%) = 8.74749 (38.438)

unfix 20
unfix 21
print "seeds:3309439"
seeds:3309439
