LAMMPS (11 Aug 2017)
# ---- initialize simulations
clear
units metal
dimension 3
boundary p p p
atom_style atomic
atom_modify map array
# ---- create atoms
read_data /home/sullberg/repos/pypospack/examples/Ni__eam__born_exp_rose/01_preconditioning_3.5NN/rank_52/Ni_fcc_100_s.lmps_min_pos/lammps.structure
  triclinic box = (0 0 0) to (9.2298 9.2298 92.2983) with tilt (0 -0 0)
  reading atoms ...
  20 atoms
# ---- define interatomic potential
include potential.mod
mass 1 58.6934

group Ni type 1
20 atoms in group Ni

pair_style eam/alloy
pair_coeff * * /home/sullberg/repos/pypospack/examples/Ni__eam__born_exp_rose/01_preconditioning_3.5NN/rank_52/Ni_fcc_100_s.lmps_min_pos/Ni.eam.alloy Ni

neighbor 1.0 bin
neigh_modify every 1 delay 0 check yes
# ---- define settings
compute eng all pe/atom
compute eatoms all reduce sum c_eng

# ---- run minimization
reset_timestep 0
thermo 1
thermo_style custom step pe lx ly lz xy xz yz press pxx pyy pzz pxy pxz pyz c_eatoms
min_style cg
minimize 1e-20 1e-20 1000 100000
  update every 1 steps, delay 0 steps, check yes
Step PotEng Lx Ly Lz Xy Xz Yz Press Pxx Pyy Pzz Pxy Pxz Pyz c_eatoms
0   -15.257103       9.2298       9.2298      92.2983            0           -0            0   -69.131668    -70.36468    -70.36468   -66.665645 -1.4139118e-15            0 1.4139118e-15   -15.257103
Averages over the last 501 of 1001 rows, steps 500 to 1000:
PotEng Lx Ly Lz Xy Xz Yz Press Pxx Pyy Pzz Pxy Pxz Pyz c_eatoms
-226.293 9.2298 9.2298 92.2983 0 0 0 57.3524 85.8296 71.3593 14.8683 0.477009 -0.068686 0.0288788 -226.293
Loop time of 0.147593 on 1 procs for 1000 steps with 20 atoms

Minimization stats:
  Stopping criterion = max iterations
  Energy initial, next-to-last, final =
  Force two-norm initial, final = 0.00786928 0.00172062
  Force max component initial, final = 0.00393464 0.000568585
  Final line search alpha, max atom move = 1 0.000568585
  Iterations, force evaluations = 1000 1640

# ---- define output variables ----
variable natoms equal "count(all)"
variable tot_energy equal "c_eatoms"
variable a11 equal "xhi-xlo"
variable a22 equal "yhi-ylo"
variable a33 equal "zhi-zlo"
variable tilt_xy equal "xy"
variable tilt_xz equal "xz"
variable tilt_yz equal "yz"
variable tot_press equal "press"
variable press_xx equal "pxx"
variable press_yy equal "pyy"
variable press_zz equal "pzz"
variable press_xy equal "pxy"
variable press_xz equal "pxz"
variable press_yz equal "pyz"

# ---- output ----
print "pypospack:output_section:begin"
pypospack:output_section:begin
tot_energy = -226.349808085425
num_atoms = 20
a11 = 9.2298
a22 = 9.2298
a33 = 92.2983
a12 = 0
a13 = -0
a23 = 0
tot_press = 18.2743390871111
pxx = 17.9735456126969
pyy = 15.6521470357267
pzz = 21.1973246129097
pxy = -0.000730057945479488
pxz = 0.000166885972197179
pyz = 0.0565808430357628
print "pypospack:output_section:done"
pypospack:output_section:done
print "pypospack:lammps_sim:done"
pypospack:lammps_sim:done
