LAMMPS (11 Aug 2017)
# ---- initialize simulations
clear
units metal
dimension 3
boundary p p p
atom_style atomic
atom_modify map array
# ---- create atoms
read_data /home/sullberg/repos/pypospack/examples/Ni__eam__born_exp_rose/01_preconditioning_3.5NN/rank_8/Ni_fcc_100_unit.lmps_min_all/lammps.structure
  triclinic box = (0 0 0) to (3.5167 3.5167 3.5167) with tilt (0 -0 0)
  reading atoms ...
  4 atoms
# ---- define interatomic potential
include potential.mod
mass 1 58.6934

group Ni type 1
4 atoms in group Ni

pair_style eam/alloy
pair_coeff * * /home/sullberg/repos/pypospack/examples/Ni__eam__born_exp_rose/01_preconditioning_3.5NN/rank_8/Ni_fcc_100_unit.lmps_min_all/Ni.eam.alloy Ni

neighbor 1.0 bin
neigh_modify every 1 delay 0 check yes
# ---- define settings
compute eng all pe/atom
compute eatoms all reduce sum c_eng
# ---- run minimization
reset_timestep 0
fix 1 all box/relax aniso 0.0 vmax 0.001
thermo 10
thermo_style custom step pe xhi xlo yhi ylo zhi xy xz yz press pxx pyy pzz pxy pxz pyz c_eatoms
min_style cg
minimize 1e-25 1e-25 5000 10000
  update every 1 steps, delay 0 steps, check yes
Step PotEng Xhi Xlo Yhi Ylo Zhi Xy Xz Yz Press Pxx Pyy Pzz Pxy Pxz Pyz c_eatoms
0   -18.100341       3.5167            0       3.5167            0       3.5167            0           -0            0    23359.643    23359.643    23359.643    23359.643 1.5240811e-10 1.2972148e-10 -1.7553363e-10   -18.100341
Averages over the last 236 of 472 rows, steps 2360 to 4708:
PotEng Xhi Xlo Yhi Ylo Zhi Xy Xz Yz Press Pxx Pyy Pzz Pxy Pxz Pyz c_eatoms
-96.3564 6.36256 -2.84586 6.36256 -2.84586 6.36256 0 0 0 3.41855 3.39516 3.47181 3.38868 -0.00916207 -0.00527831 0.0100456 -96.3564
Loop time of 0.269513 on 1 procs for 4708 steps with 4 atoms

Minimization stats:
  Stopping criterion = linesearch alpha is zero
  Energy initial, next-to-last, final =
  Force two-norm initial, final = 1.0983 2.10937e-06
  Force max component initial, final = 0.634106 1.21442e-06
  Final line search alpha, max atom move = 0.5 6.07212e-07
  Iterations, force evaluations = 4708 8058

# ---- define output variables ----
variable natoms equal "count(all)"
variable tot_energy equal "c_eatoms"
variable a11 equal "xhi-xlo"
variable a22 equal "yhi-ylo"
variable a33 equal "zhi-zlo"
variable tilt_xy equal "xy"
variable tilt_xz equal "xz"
variable tilt_yz equal "yz"
variable tot_press equal "press"
variable press_xx equal "pxx"
variable press_yy equal "pyy"
variable press_zz equal "pzz"
variable press_xy equal "pxy"
variable press_xz equal "pxz"
variable press_yz equal "pyz"

# ---- output ----
print "pypospack:output_section:begin"
pypospack:output_section:begin
tot_energy = -96.3565835047969
num_atoms = 4
a11 = 10.0610231763365
a22 = 10.0610231714628
a33 = 10.0610231748841
a12 = 0
a13 = -0
a23 = 0
tot_press = 0.00545653239372269
pxx = 0.00546589660781228
pyy = 0.00543850862039052
pzz = 0.00546519195296527
pxy = 9.20865770214953e-06
pxz = -4.28131554049838e-06
pyz = -8.47576884356555e-06
print "pypospack:output_section:done"
pypospack:output_section:done
print "pypospack:lammps_sim:done"
pypospack:lammps_sim:done
