LAMMPS (11 Aug 2017)
# ---- initialize simulations
clear
units metal
dimension 3
boundary p p p
atom_style atomic
atom_modify map array
# ---- create atoms
read_data /ufrc/phillpot/eragasa/pareto_optimization_3.5NN/rank_52/Ni_dia.lmps_min_all/lammps.structure
  triclinic box = (0 0 0) to (4.8791 4.8791 4.8791) with tilt (0 0 0)
  reading atoms ...
  8 atoms
# ---- define interatomic potential
include potential.mod
mass 1 58.6934

group Ni type 1
8 atoms in group Ni

pair_style eam/alloy
pair_coeff * * /ufrc/phillpot/eragasa/pareto_optimization_3.5NN/rank_52/Ni_dia.lmps_min_all/Ni.eam.alloy Ni

neighbor 1.0 bin
neigh_modify every 1 delay 0 check yes
# ---- define settings
compute eng all pe/atom
compute eatoms all reduce sum c_eng
# ---- run minimization
reset_timestep 0
fix 1 all box/relax aniso 0.0 vmax 0.001
thermo 10
thermo_style custom step pe xhi xlo yhi ylo zhi xy xz yz press pxx pyy pzz pxy pxz pyz c_eatoms
min_style cg
minimize 1e-25 1e-25 5000 10000
  update every 1 steps, delay 0 steps, check yes
Step PotEng Xhi Xlo Yhi Ylo Zhi Xy Xz Yz Press Pxx Pyy Pzz Pxy Pxz Pyz c_eatoms
0    -28.19032       4.8791            0       4.8791            0       4.8791            0            0            0   -24885.296   -24885.296   -24885.296   -24885.296   -19.692658   -19.692658   -19.692658    -28.19032
Averages over the last 75 of 149 rows, steps 740 to 1471:
PotEng Xhi Xlo Yhi Ylo Zhi Xy Xz Yz Press Pxx Pyy Pzz Pxy Pxz Pyz c_eatoms
-38.9062 3.58143 1.29767 6.20251 -1.32341 4.56019 0 0 0 3345.67 209.582 32826.6 -22999.2 228.548 8821.29 -1047.72 -38.9062
Loop time of 0.0481391 on 1 procs for 1471 steps with 8 atoms

Minimization stats:
  Stopping criterion = energy tolerance
  Energy initial, next-to-last, final =
  Force two-norm initial, final = 3.12473 6.00218e-12
  Force max component initial, final = 1.80406 4.19329e-12
  Final line search alpha, max atom move = 1 4.19329e-12
  Iterations, force evaluations = 1471 1692

# ---- define output variables ----
variable natoms equal "count(all)"
variable tot_energy equal "c_eatoms"
variable a11 equal "xhi-xlo"
variable a22 equal "yhi-ylo"
variable a33 equal "zhi-zlo"
variable tilt_xy equal "xy"
variable tilt_xz equal "xz"
variable tilt_yz equal "yz"
variable tot_press equal "press"
variable press_xx equal "pxx"
variable press_yy equal "pyy"
variable press_zz equal "pzz"
variable press_xy equal "pxy"
variable press_xz equal "pxz"
variable press_yz equal "pyz"

# ---- output ----
print "pypospack:output_section:begin"
pypospack:output_section:begin
tot_energy = -39.3696981839536
num_atoms = 8
a11 = 2.33034044006236
a22 = 7.61660261283722
a33 = 4.03626804112082
a12 = 0
a13 = 0
a23 = 0
tot_press = 3.62270428013057e-08
pxx = 4.47903457399842e-08
pyy = 2.69727942488099e-08
pzz = 3.69179884151228e-08
pxy = 2.85533953828997e-11
pxz = 2.50880373812935e-08
pyz = -8.87250207074614e-11
print "pypospack:output_section:done"
pypospack:output_section:done
print "pypospack:lammps_sim:done"
pypospack:lammps_sim:done
