LAMMPS (11 Aug 2017)
# ---- initialize simulations
clear
units metal
dimension 3
boundary p p p
atom_style atomic
atom_modify map array
# ---- create atoms
read_data /ufrc/phillpot/eragasa/pareto_optimization_3.5NN/rank_50/Ni_dia.lmps_min_all/lammps.structure
  triclinic box = (0 0 0) to (4.8791 4.8791 4.8791) with tilt (0 0 0)
  reading atoms ...
  8 atoms
# ---- define interatomic potential
include potential.mod
mass 1 58.6934

group Ni type 1
8 atoms in group Ni

pair_style eam/alloy
pair_coeff * * /ufrc/phillpot/eragasa/pareto_optimization_3.5NN/rank_50/Ni_dia.lmps_min_all/Ni.eam.alloy Ni

neighbor 1.0 bin
neigh_modify every 1 delay 0 check yes
# ---- define settings
compute eng all pe/atom
compute eatoms all reduce sum c_eng
# ---- run minimization
reset_timestep 0
fix 1 all box/relax aniso 0.0 vmax 0.001
thermo 10
thermo_style custom step pe xhi xlo yhi ylo zhi xy xz yz press pxx pyy pzz pxy pxz pyz c_eatoms
min_style cg
minimize 1e-25 1e-25 5000 10000
  update every 1 steps, delay 0 steps, check yes
Step PotEng Xhi Xlo Yhi Ylo Zhi Xy Xz Yz Press Pxx Pyy Pzz Pxy Pxz Pyz c_eatoms
0   -10.684479       4.8791            0       4.8791            0       4.8791            0            0            0    189190.34    189190.34    189190.34    189190.34   -23.758777   -23.758777   -23.758777   -10.684479
Averages over the last 69 of 137 rows, steps 680 to 1351:
PotEng Xhi Xlo Yhi Ylo Zhi Xy Xz Yz Press Pxx Pyy Pzz Pxy Pxz Pyz c_eatoms
-17.4254 3.68974 1.18936 4.66932 0.209779 6.5608 0 0 0 3634.01 -3652.98 4295.9 10259.1 5094.09 -1276.35 -2479.83 -17.4254
Loop time of 0.0347319 on 1 procs for 1351 steps with 8 atoms

Minimization stats:
  Stopping criterion = energy tolerance
  Energy initial, next-to-last, final =
  Force two-norm initial, final = 23.7557 3.37111e-11
  Force max component initial, final = 13.7154 2.17038e-11
  Final line search alpha, max atom move = 1 2.17038e-11
  Iterations, force evaluations = 1351 1572

# ---- define output variables ----
variable natoms equal "count(all)"
variable tot_energy equal "c_eatoms"
variable a11 equal "xhi-xlo"
variable a22 equal "yhi-ylo"
variable a33 equal "zhi-zlo"
variable tilt_xy equal "xy"
variable tilt_xz equal "xz"
variable tilt_yz equal "yz"
variable tot_press equal "press"
variable press_xx equal "pxx"
variable press_yy equal "pyy"
variable press_zz equal "pzz"
variable press_xy equal "pxy"
variable press_xz equal "pxz"
variable press_yz equal "pyz"

# ---- output ----
print "pypospack:output_section:begin"
pypospack:output_section:begin
tot_energy = -17.6983629880851
num_atoms = 8
a11 = 2.51913029390932
a22 = 4.36326165992861
a33 = 8.23254871038392
a12 = 0
a13 = 0
a23 = 0
tot_press = 1.58595942999761e-07
pxx = -1.5587029125525e-09
pyy = -1.71057170984843e-07
pzz = 6.4840370289668e-07
pxy = 7.37653849772847e-07
pxz = -1.30229769630776e-11
pyz = -1.32686935095507e-11
print "pypospack:output_section:done"
pypospack:output_section:done
print "pypospack:lammps_sim:done"
pypospack:lammps_sim:done
