LAMMPS (10 Feb 2015)
# ---- initialize simulations
clear
units metal
dimension 3
boundary p p p
atom_style charge
atom_modify map array
# ---- create atoms
read_data /Users/eugeneragasa/pyflamestk_git/pypospack/tests/tests_integration/workflow/WorkflowLammpsThermalExpansion/param_3867/MgO_NaCl_unit.npt.T200/lammps.structure
  triclinic box = (0 0 0) to (4.2565 4.2565 4.2565) with tilt (0 0 0)
  reading atoms ...
  8 atoms
# ---- define interatomic potential
include potential.mod
mass 1 24.305
mass 2 15.999

group Mg type 1
4 atoms in group Mg
group O type 2
4 atoms in group O

set group Mg charge 1.73479148785
  4 settings made for charge
set group O charge -1.73479148785
  4 settings made for charge

variable R_cut equal 10.0

pair_style buck/coul/long 10
pair_coeff 1 1 0.0 0.5 0.0 10
pair_coeff 1 2 1225.32983502 0.291530354982 0.0 10
pair_coeff 2 2 16858.6500597 0.120403294253 7.45918898041 10

kspace_style pppm 1.0e-5

neighbor 1.0 bin
neigh_modify every 1 delay 0 check yes
# ---- define settings
compute eng all pe/atom
compute eatoms all reduce sum c_eng
# ---- run minimization
reset_timestep 0
fix 1 all box/relax iso 0.0 vmax 0.001
thermo 10
thermo_style custom step pe lx ly lz xy xz yz press pxx pyy pzz pxy pxz pyz c_eatoms
min_style cg
minimize 1e-25 1e-25 5000 10000
PPPM initialization ...
  G vector (1/distance) = 0.3534
  grid = 8 8 8
  stencil order = 5
  estimated absolute RMS force accuracy = 4.23269e-05
  estimated relative force accuracy = 2.93944e-06
  3d grid and FFT values/proc = 3375 512
  1 neighbor list requests
  update every 1 steps, delay 0 steps, check yes
Step PotEng Lx Ly Lz Xy Xz Yz Press Pxx Pyy Pzz Pxy Pxz Pyz eatoms
0   -122.62677       4.2565       4.2565       4.2565            0            0            0    18600.794    18600.794    18600.794    18600.794 4.9707872e-11 4.7042733e-11 1.8950886e-10   -122.62677
Loop time of 0.0076282 on 1 procs for 5 steps with 8 atoms

Minimization stats:
  Stopping criterion = linesearch alpha is zero
  Energy initial, next-to-last, final =
  Force two-norm initial, final = 2.68597 0.0019334
  Force max component initial, final = 2.68596 0.000975322
  Final line search alpha, max atom move = 0.00390625 3.80985e-06
  Iterations, force evaluations = 5 22

Pair  time (%) = 0.00201511 (26.4166)
Kspce time (%) = 0.00119734 (15.6962)
Neigh time (%) = 0 (0)
Comm  time (%) = 0.00023222 (3.04423)
Outpt time (%) = 0 (0)
Other time (%) = 0.00418353 (54.8429)

unfix 1
# ---- define output variables ----
variable natoms equal "count(all)"
variable tot_energy equal "c_eatoms"
variable length_x equal "lx"
variable length_y equal "ly"
variable length_z equal "lz"
variable tilt_xy equal "xy"
variable tilt_xz equal "xz"
variable tilt_yz equal "yz"
variable tot_press equal "press"
variable press_xx equal "pxx"
variable press_yy equal "pyy"
variable press_zz equal "pzz"
variable press_xy equal "pxy"
variable press_xz equal "pxz"
variable press_yz equal "pyz"

# ---- output ----
print "pypospack:output_section:begin"
pypospack:output_section:begin
tot_energy = -122.631316441343
num_atoms = 8
xx = 4.27128583299446
yy = 4.27128583299446
zz = 4.27128583299446
xy = 0
xz = 0
yz = 0
tot_press = -6.70760353710228
pxx = -6.70760353705429
pyy = -6.70760353725253
pzz = -6.70760353700002
pxy = 9.51340852761742e-11
pxz = 4.97329584958765e-12
pyz = 8.66033470907354e-11
print "pypospack:output_section:done"
pypospack:output_section:done
print "pypospack:lammps_sim:done"
pypospack:lammps_sim:done
#------------------------------------------------------------------------------
# RUN THERMOSTAT
# running using an NPT Nose-Hoover style thermostat
#------------------------------------------------------------------------------
variable tempdamp equal 0.1
variable pressdamp equal 1.0
# set initial velocities
velocity all create 200 1751014 mom yes dist gaussian loop all
# fix for Nose-Hoover style thermostat
fix 20 all npt temp 200 200 0.1 aniso 0.0 0.0 1.0 drag 1.0 couple xyz
variable boxx equal lx
variable boxy equal ly
variable boxz equal lz
variable boxp equal press
variable boxt equal temp
# calculate averages every 10000 steps
reset_timestep 0
fix 21 all ave/time 10 10 100 v_boxx v_boxy v_boxz v_boxp v_boxt file lattice.out
thermo_style custom step temp pe ke etotal press lx ly lz press pxx pyy pzz pxy pxz pyz vol
thermo_modify flush yes
thermo 100
run 100000
PPPM initialization ...
  G vector (1/distance) = 0.353246
  grid = 8 8 8
  stencil order = 5
  estimated absolute RMS force accuracy = 4.26311e-05
  estimated relative force accuracy = 2.96057e-06
  3d grid and FFT values/proc = 3375 512
Step Temp PotEng KinEng TotEng Press Lx Ly Lz Press Pxx Pyy Pzz Pxy Pxz Pyz Volume
0          200   -122.63132    0.1809642   -122.45036    2473.1801    4.2712858    4.2712858    4.2712858    2473.1801    675.79037    3641.1541    3102.5958    274.42734   -427.14199     -536.509    77.924838
Averages over the last 501 of 1001 rows, steps 50000 to 100000:
Temp PotEng KinEng TotEng Press Lx Ly Lz Press Pxx Pyy Pzz Pxy Pxz Pyz Volume
199.953 -122.45 0.180921 -122.269 -311.848 4.27885 4.27885 4.27885 -311.848 -4263.87 2618.09 710.237 -190.445 207.12 -213.315 78.3394
Loop time of 22.2357 on 1 procs for 100000 steps with 8 atoms

Pair  time (%) = 7.12927 (32.0623)
Kspce time (%) = 5.30282 (23.8482)
Neigh time (%) = 0 (0)
Comm  time (%) = 1.06726 (4.79977)
Outpt time (%) = 0.0273206 (0.122868)
Other time (%) = 8.70903 (39.1669)

unfix 20
unfix 21
print "seeds:1751014"
seeds:1751014
