LAMMPS (11 Aug 2017)
# ---- initialize simulations
clear
units metal
dimension 3
boundary p p p
atom_style atomic
atom_modify map array
# ---- create atoms
read_data /home/eragasa/repos/pypospack/examples/Ni__eam__born_exp_rose/preconditioning_3.5NN/rank_30/Ni_fcc.lmps_min_all/lammps.structure
  triclinic box = (0 0 0) to (3.5167 3.5167 3.5167) with tilt (0 -0 0)
  reading atoms ...
  4 atoms
# ---- define interatomic potential
include potential.mod
mass 1 58.6934

group Ni type 1
4 atoms in group Ni

pair_style eam/alloy
pair_coeff * * /home/eragasa/repos/pypospack/examples/Ni__eam__born_exp_rose/preconditioning_3.5NN/rank_30/Ni_fcc.lmps_min_all/Ni.eam.alloy Ni

neighbor 1.0 bin
neigh_modify every 1 delay 0 check yes
# ---- define settings
compute eng all pe/atom
compute eatoms all reduce sum c_eng
# ---- run minimization
reset_timestep 0
fix 1 all box/relax aniso 0.0 vmax 0.001
thermo 10
thermo_style custom step pe xhi xlo yhi ylo zhi xy xz yz press pxx pyy pzz pxy pxz pyz c_eatoms
min_style cg
minimize 1e-25 1e-25 5000 10000
  update every 1 steps, delay 0 steps, check yes
Step PotEng Xhi Xlo Yhi Ylo Zhi Xy Xz Yz Press Pxx Pyy Pzz Pxy Pxz Pyz c_eatoms
0   -17.851989       3.5167            0       3.5167            0       3.5167            0           -0            0    6380.0084    6380.0084    6380.0084    6380.0084 2.0567291e-11 7.7684482e-13 4.4171816e-13   -17.851989
Averages over the last 129 of 258 rows, steps 1290 to 2568:
PotEng Xhi Xlo Yhi Ylo Zhi Xy Xz Yz Press Pxx Pyy Pzz Pxy Pxz Pyz c_eatoms
-18.5918 4.40478 -0.888078 4.47782 -0.961118 5.97985 0 0 0 4.99893 3.18532 2.98137 8.83008 0.313134 1.39468e-15 -3.70703e-15 -18.5918
Loop time of 0.0255411 on 1 procs for 2568 steps with 4 atoms

Minimization stats:
  Stopping criterion = energy tolerance
  Energy initial, next-to-last, final =
  Force two-norm initial, final = 0.29997 1.10776e-07
  Force max component initial, final = 0.173188 8.92992e-08
  Final line search alpha, max atom move = 1 8.92992e-08
  Iterations, force evaluations = 2568 3711

# ---- define output variables ----
variable natoms equal "count(all)"
variable tot_energy equal "c_eatoms"
variable a11 equal "xhi-xlo"
variable a22 equal "yhi-ylo"
variable a33 equal "zhi-zlo"
variable tilt_xy equal "xy"
variable tilt_xz equal "xz"
variable tilt_yz equal "yz"
variable tot_press equal "press"
variable press_xx equal "pxx"
variable press_yy equal "pyy"
variable press_zz equal "pzz"
variable press_xy equal "pxy"
variable press_xz equal "pxz"
variable press_yz equal "pyz"

# ---- output ----
print "pypospack:output_section:begin"
pypospack:output_section:begin
tot_energy = -18.5918884210753
num_atoms = 4
a11 = 5.78749913713364
a22 = 5.90928032178663
a33 = 9.17511626710229
a12 = 0
a13 = -0
a23 = 0
tot_press = 0.00043634421398997
pxx = 0.000117512643869236
pyy = 1.93075897744098e-06
pzz = 0.00118958923912323
pxy = 0.000167564903626716
pxz = 2.95240290317003e-16
pyz = 4.32487493254479e-18
print "pypospack:output_section:done"
pypospack:output_section:done
print "pypospack:lammps_sim:done"
pypospack:lammps_sim:done
