LAMMPS (11 Aug 2017)
# ---- initialize simulations
clear
units metal
dimension 3
boundary p p p
atom_style atomic
atom_modify map array
# ---- create atoms
read_data /home/eragasa/repos/pypospack/examples/Ni__eam__born_exp_rose/preconditioning_3.5NN/rank_87/Ni_fcc.lmps_min_all/lammps.structure
  triclinic box = (0 0 0) to (3.5167 3.5167 3.5167) with tilt (0 -0 0)
  reading atoms ...
  4 atoms
# ---- define interatomic potential
include potential.mod
mass 1 58.6934

group Ni type 1
4 atoms in group Ni

pair_style eam/alloy
pair_coeff * * /home/eragasa/repos/pypospack/examples/Ni__eam__born_exp_rose/preconditioning_3.5NN/rank_87/Ni_fcc.lmps_min_all/Ni.eam.alloy Ni

neighbor 1.0 bin
neigh_modify every 1 delay 0 check yes
# ---- define settings
compute eng all pe/atom
compute eatoms all reduce sum c_eng
# ---- run minimization
reset_timestep 0
fix 1 all box/relax aniso 0.0 vmax 0.001
thermo 10
thermo_style custom step pe xhi xlo yhi ylo zhi xy xz yz press pxx pyy pzz pxy pxz pyz c_eatoms
min_style cg
minimize 1e-25 1e-25 5000 10000
  update every 1 steps, delay 0 steps, check yes
Step PotEng Xhi Xlo Yhi Ylo Zhi Xy Xz Yz Press Pxx Pyy Pzz Pxy Pxz Pyz c_eatoms
0   -17.806106       3.5167            0       3.5167            0       3.5167            0           -0            0    7423.1533    7423.1533    7423.1533    7423.1533 -1.1502895e-12 -1.1343133e-12 -1.182242e-12   -17.806106
Averages over the last 119 of 238 rows, steps 1190 to 2361:
PotEng Xhi Xlo Yhi Ylo Zhi Xy Xz Yz Press Pxx Pyy Pzz Pxy Pxz Pyz c_eatoms
-19.2818 4.51315 -0.996454 4.54429 -1.02759 6.33904 0 0 0 148.796 20.3326 15.1906 410.865 -4.64228 -1.20979e-11 -1.13617e-11 -19.2818
Loop time of 0.0192571 on 1 procs for 2361 steps with 4 atoms

Minimization stats:
  Stopping criterion = energy tolerance
  Energy initial, next-to-last, final =
  Force two-norm initial, final = 0.349016 1.39033e-07
  Force max component initial, final = 0.201504 6.60728e-08
  Final line search alpha, max atom move = 1 6.60728e-08
  Iterations, force evaluations = 2361 2982

# ---- define output variables ----
variable natoms equal "count(all)"
variable tot_energy equal "c_eatoms"
variable a11 equal "xhi-xlo"
variable a22 equal "yhi-ylo"
variable a33 equal "zhi-zlo"
variable tilt_xy equal "xy"
variable tilt_xz equal "xz"
variable tilt_yz equal "yz"
variable tot_press equal "press"
variable press_xx equal "pxx"
variable press_yy equal "pyy"
variable press_zz equal "pzz"
variable press_xy equal "pxy"
variable press_xz equal "pxz"
variable press_yz equal "pyz"

# ---- output ----
print "pypospack:output_section:begin"
pypospack:output_section:begin
tot_energy = -19.2889175993871
num_atoms = 4
a11 = 5.8444083847344
a22 = 5.89003317439811
a33 = 10.1490622228622
a12 = 0
a13 = -0
a23 = 0
tot_press = -7.04712548732638e-05
pxx = 0.00044670330126415
pyy = -0.000458897638714834
pzz = -0.000199219427169107
pxy = 0.000329936537052266
pxz = 5.10751270804361e-14
pyz = 4.66282583862298e-18
print "pypospack:output_section:done"
pypospack:output_section:done
print "pypospack:lammps_sim:done"
pypospack:lammps_sim:done
