LAMMPS (11 Aug 2017)
# ---- initialize simulations
clear
units metal
dimension 3
boundary p p p
atom_style atomic
atom_modify map array
# ---- create atoms
read_data /home/eragasa/repos/pypospack/examples/Ni__eam__born_exp_rose/preconditioning_3.5NN/rank_13/Ni_fcc.lmps_min_all/lammps.structure
  triclinic box = (0 0 0) to (3.5167 3.5167 3.5167) with tilt (0 -0 0)
  reading atoms ...
  4 atoms
# ---- define interatomic potential
include potential.mod
mass 1 58.6934

group Ni type 1
4 atoms in group Ni

pair_style eam/alloy
pair_coeff * * /home/eragasa/repos/pypospack/examples/Ni__eam__born_exp_rose/preconditioning_3.5NN/rank_13/Ni_fcc.lmps_min_all/Ni.eam.alloy Ni

neighbor 1.0 bin
neigh_modify every 1 delay 0 check yes
# ---- define settings
compute eng all pe/atom
compute eatoms all reduce sum c_eng
# ---- run minimization
reset_timestep 0
fix 1 all box/relax aniso 0.0 vmax 0.001
thermo 10
thermo_style custom step pe xhi xlo yhi ylo zhi xy xz yz press pxx pyy pzz pxy pxz pyz c_eatoms
min_style cg
minimize 1e-25 1e-25 5000 10000
  update every 1 steps, delay 0 steps, check yes
Step PotEng Xhi Xlo Yhi Ylo Zhi Xy Xz Yz Press Pxx Pyy Pzz Pxy Pxz Pyz c_eatoms
0   -17.829824       3.5167            0       3.5167            0       3.5167            0           -0            0    6014.8551    6014.8551    6014.8551    6014.8551 1.2780994e-13 -1.1502895e-12 3.1952486e-13   -17.829824
Averages over the last 64 of 127 rows, steps 630 to 1251:
PotEng Xhi Xlo Yhi Ylo Zhi Xy Xz Yz Press Pxx Pyy Pzz Pxy Pxz Pyz c_eatoms
-17.8301 3.51872 -0.00202479 3.51872 -0.00202479 3.51872 0 0 0 19.6072 19.6072 19.6072 19.6072 -5.19432e-12 -2.38481e-11 -2.38925e-12 -17.8301
Loop time of 0.160449 on 1 procs for 1251 steps with 4 atoms

Minimization stats:
  Stopping criterion = max force evaluations
  Energy initial, next-to-last, final =
  Force two-norm initial, final = 0.282825 0.00186903
  Force max component initial, final = 0.163275 0.00107909
  Final line search alpha, max atom move = 0.00682484 7.3646e-06
  Iterations, force evaluations = 1251 10001

# ---- define output variables ----
variable natoms equal "count(all)"
variable tot_energy equal "c_eatoms"
variable a11 equal "xhi-xlo"
variable a22 equal "yhi-ylo"
variable a33 equal "zhi-zlo"
variable tilt_xy equal "xy"
variable tilt_xz equal "xz"
variable tilt_yz equal "yz"
variable tot_press equal "press"
variable press_xx equal "pxx"
variable press_yy equal "pyy"
variable press_zz equal "pzz"
variable press_xy equal "pxy"
variable press_xz equal "pxz"
variable press_yz equal "pyz"

# ---- output ----
print "pypospack:output_section:begin"
pypospack:output_section:begin
tot_energy = -17.8300683708444
num_atoms = 4
a11 = 3.52074592453981
a22 = 3.52074592453981
a33 = 3.52074592453981
a12 = 0
a13 = -0
a23 = 0
tot_press = 39.6608690079812
pxx = 39.6608690081944
pyy = 39.6608690079294
pzz = 39.6608690078199
pxy = -1.59212281645453e-12
pxz = 7.64218951898176e-13
pyz = 4.01214949746543e-12
print "pypospack:output_section:done"
pypospack:output_section:done
print "pypospack:lammps_sim:done"
pypospack:lammps_sim:done
