LAMMPS (10 Feb 2015)
# ---- initialize simulations
clear
units metal
dimension 3
boundary p p p
atom_style charge
atom_modify map array
# ---- create atoms
read_data /Users/eugeneragasa/pyflamestk_git/pypospack/tests/tests_integration/workflow/WorkflowLammpsThermalExpansion/param_4537/MgO_NaCl_unit.npt.T1000/lammps.structure
  triclinic box = (0 0 0) to (4.2565 4.2565 4.2565) with tilt (0 0 0)
  reading atoms ...
  8 atoms
# ---- define interatomic potential
include potential.mod
mass 1 24.305
mass 2 15.999

group Mg type 1
4 atoms in group Mg
group O type 2
4 atoms in group O

set group Mg charge 1.68595133453
  4 settings made for charge
set group O charge -1.68595133453
  4 settings made for charge

variable R_cut equal 10.0

pair_style buck/coul/long 10
pair_coeff 1 1 0.0 0.5 0.0 10
pair_coeff 1 2 1257.74769115 0.28905643469 0.0 10
pair_coeff 2 2 3064.42109336 0.236064465148 18.7313535189 10

kspace_style pppm 1.0e-5

neighbor 1.0 bin
neigh_modify every 1 delay 0 check yes
# ---- define settings
compute eng all pe/atom
compute eatoms all reduce sum c_eng
# ---- run minimization
reset_timestep 0
fix 1 all box/relax iso 0.0 vmax 0.001
thermo 10
thermo_style custom step pe lx ly lz xy xz yz press pxx pyy pzz pxy pxz pyz c_eatoms
min_style cg
minimize 1e-25 1e-25 5000 10000
PPPM initialization ...
  G vector (1/distance) = 0.353047
  grid = 8 8 8
  stencil order = 5
  estimated absolute RMS force accuracy = 4.05219e-05
  estimated relative force accuracy = 2.81409e-06
  3d grid and FFT values/proc = 3375 512
  1 neighbor list requests
  update every 1 steps, delay 0 steps, check yes
Step PotEng Lx Ly Lz Xy Xz Yz Press Pxx Pyy Pzz Pxy Pxz Pyz eatoms
0   -115.66496       4.2565       4.2565       4.2565            0            0            0    45758.215    45758.215    45758.215    45758.215 1.7170796e-11 2.2312869e-10 1.3064853e-10   -115.66496
Loop time of 0.00802112 on 1 procs for 13 steps with 8 atoms

Minimization stats:
  Stopping criterion = linesearch alpha is zero
  Energy initial, next-to-last, final =
  Force two-norm initial, final = 6.60751 4.45929e-05
  Force max component initial, final = 6.60751 2.97026e-05
  Final line search alpha, max atom move = 0.5 1.48513e-05
  Iterations, force evaluations = 13 19

Pair  time (%) = 0.00214982 (26.802)
Kspce time (%) = 0.00146341 (18.2445)
Neigh time (%) = 0 (0)
Comm  time (%) = 0.000293732 (3.66198)
Outpt time (%) = 2.40803e-05 (0.300211)
Other time (%) = 0.00409007 (50.9913)

unfix 1
# ---- define output variables ----
variable natoms equal "count(all)"
variable tot_energy equal "c_eatoms"
variable length_x equal "lx"
variable length_y equal "ly"
variable length_z equal "lz"
variable tilt_xy equal "xy"
variable tilt_xz equal "xz"
variable tilt_yz equal "yz"
variable tot_press equal "press"
variable press_xx equal "pxx"
variable press_yy equal "pyy"
variable press_zz equal "pzz"
variable press_xy equal "pxy"
variable press_xz equal "pxz"
variable press_yz equal "pyz"

# ---- output ----
print "pypospack:output_section:begin"
pypospack:output_section:begin
tot_energy = -115.692495364628
num_atoms = 8
xx = 4.29329700926666
yy = 4.29329700926666
zz = 4.29329700926666
xy = 0
xz = 0
yz = 0
tot_press = 0.202184869803092
pxx = 0.202184869911938
pyy = 0.202184869729888
pzz = 0.20218486976745
pxy = 1.64507477572858e-10
pxz = -9.16368397176372e-11
pyz = -3.62025011042311e-11
print "pypospack:output_section:done"
pypospack:output_section:done
print "pypospack:lammps_sim:done"
pypospack:lammps_sim:done
#------------------------------------------------------------------------------
# RUN THERMOSTAT
# running using an NPT Nose-Hoover style thermostat
#------------------------------------------------------------------------------
variable tempdamp equal 0.1
variable pressdamp equal 1.0
# set initial velocities
velocity all create 1000 6278530 mom yes dist gaussian loop all
# fix for Nose-Hoover style thermostat
fix 20 all npt temp 1000 1000 0.1 aniso 0.0 0.0 1.0 drag 1.0 couple xyz
variable boxx equal lx
variable boxy equal ly
variable boxz equal lz
variable boxp equal press
variable boxt equal temp
# calculate averages every 10000 steps
reset_timestep 0
fix 21 all ave/time 10 10 100 v_boxx v_boxy v_boxz v_boxp v_boxt file lattice.out
thermo_style custom step temp pe ke etotal press lx ly lz press pxx pyy pzz pxy pxz pyz vol
thermo_modify flush yes
thermo 100
run 100000
PPPM initialization ...
  G vector (1/distance) = 0.352672
  grid = 8 8 8
  stencil order = 5
  estimated absolute RMS force accuracy = 4.1232e-05
  estimated relative force accuracy = 2.8634e-06
  3d grid and FFT values/proc = 3375 512
Step Temp PotEng KinEng TotEng Press Lx Ly Lz Press Pxx Pyy Pzz Pxy Pxz Pyz Volume
0         1000    -115.6925   0.90482102   -114.78768    12211.598     4.293297     4.293297     4.293297    12211.598    11726.846    10448.448    14459.501    1397.6196   -1215.7477   -4449.2033    79.135764
Averages over the last 501 of 1001 rows, steps 50000 to 100000:
Temp PotEng KinEng TotEng Press Lx Ly Lz Press Pxx Pyy Pzz Pxy Pxz Pyz Volume
1002.66 -114.782 0.907229 -113.875 -1373.89 4.30771 4.30771 4.30771 -1373.89 -6880.96 -5353.51 8112.82 -975.4 -1103.68 603.709 79.9355
Loop time of 22.3072 on 1 procs for 100000 steps with 8 atoms

Pair  time (%) = 7.11219 (31.883)
Kspce time (%) = 5.3597 (24.0268)
Neigh time (%) = 0 (0)
Comm  time (%) = 1.07272 (4.80887)
Outpt time (%) = 0.0259128 (0.116163)
Other time (%) = 8.73664 (39.1652)

unfix 20
unfix 21
print "seeds:6278530"
seeds:6278530
