LAMMPS (11 Aug 2017)
# ---- initialize simulations
clear
units metal
dimension 3
boundary p p p
atom_style atomic
atom_modify map array
# ---- create atoms
read_data /home/eragasa/repos/pypospack/examples/Ni__eam__born_exp_rose/preconditioning_3.5NN/rank_60/Ni_fcc.lmps_min_all/lammps.structure
  triclinic box = (0 0 0) to (3.5167 3.5167 3.5167) with tilt (0 -0 0)
  reading atoms ...
  4 atoms
# ---- define interatomic potential
include potential.mod
mass 1 58.6934

group Ni type 1
4 atoms in group Ni

pair_style eam/alloy
pair_coeff * * /home/eragasa/repos/pypospack/examples/Ni__eam__born_exp_rose/preconditioning_3.5NN/rank_60/Ni_fcc.lmps_min_all/Ni.eam.alloy Ni

neighbor 1.0 bin
neigh_modify every 1 delay 0 check yes
# ---- define settings
compute eng all pe/atom
compute eatoms all reduce sum c_eng
# ---- run minimization
reset_timestep 0
fix 1 all box/relax aniso 0.0 vmax 0.001
thermo 10
thermo_style custom step pe xhi xlo yhi ylo zhi xy xz yz press pxx pyy pzz pxy pxz pyz c_eatoms
min_style cg
minimize 1e-25 1e-25 5000 10000
  update every 1 steps, delay 0 steps, check yes
Step PotEng Xhi Xlo Yhi Ylo Zhi Xy Xz Yz Press Pxx Pyy Pzz Pxy Pxz Pyz c_eatoms
0   -17.812219       3.5167            0       3.5167            0       3.5167            0           -0            0    4118.2495    4118.2495    4118.2495    4118.2495 1.2269755e-11 -8.1798364e-12 -1.4314714e-11   -17.812219
Averages over the last 72 of 144 rows, steps 720 to 1428:
PotEng Xhi Xlo Yhi Ylo Zhi Xy Xz Yz Press Pxx Pyy Pzz Pxy Pxz Pyz c_eatoms
-17.8124 3.51809 -0.00139316 3.51809 -0.00139316 3.51809 0 0 0 19.9391 19.9391 19.9391 19.9391 -5.44878e-11 2.43963e-11 8.24543e-12 -17.8124
Loop time of 0.178668 on 1 procs for 1428 steps with 4 atoms

Minimization stats:
  Stopping criterion = max force evaluations
  Energy initial, next-to-last, final =
  Force two-norm initial, final = 0.194541 0.000938966
  Force max component initial, final = 0.111791 0.000542112
  Final line search alpha, max atom move = 0.00612422 3.32001e-06
  Iterations, force evaluations = 1428 10000

# ---- define output variables ----
variable natoms equal "count(all)"
variable tot_energy equal "c_eatoms"
variable a11 equal "xhi-xlo"
variable a22 equal "yhi-ylo"
variable a33 equal "zhi-zlo"
variable tilt_xy equal "xy"
variable tilt_xz equal "xz"
variable tilt_yz equal "yz"
variable tot_press equal "press"
variable press_xx equal "pxx"
variable press_yy equal "pyy"
variable press_zz equal "pzz"
variable press_xy equal "pxy"
variable press_xz equal "pxz"
variable press_yz equal "pyz"

# ---- output ----
print "pypospack:output_section:begin"
pypospack:output_section:begin
tot_energy = -17.8123780684115
num_atoms = 4
a11 = 3.5194863114424
a22 = 3.5194863114424
a33 = 3.5194863114424
a12 = 0
a13 = -0
a23 = 0
tot_press = 19.9391071175006
pxx = 19.9391071172898
pyy = 19.9391071187097
pzz = 19.9391071165023
pxy = -5.07986414111384e-10
pxz = -5.40628111403682e-10
pyz = 4.08021216153722e-11
print "pypospack:output_section:done"
pypospack:output_section:done
print "pypospack:lammps_sim:done"
pypospack:lammps_sim:done
