LAMMPS (10 Feb 2015)
# ---- initialize simulations
clear
units metal
dimension 3
boundary p p p
atom_style charge
atom_modify map array
# ---- create atoms
read_data /Users/eugeneragasa/pyflamestk_git/pypospack/tests/tests_integration/workflow/WorkflowLammpsThermalExpansion/param_6993/MgO_NaCl_unit.npt.T800/lammps.structure
  triclinic box = (0 0 0) to (4.2565 4.2565 4.2565) with tilt (0 0 0)
  reading atoms ...
  8 atoms
# ---- define interatomic potential
include potential.mod
mass 1 24.305
mass 2 15.999

group Mg type 1
4 atoms in group Mg
group O type 2
4 atoms in group O

set group Mg charge 1.61814101446
  4 settings made for charge
set group O charge -1.61814101446
  4 settings made for charge

variable R_cut equal 10.0

pair_style buck/coul/long 10
pair_coeff 1 1 0.0 0.5 0.0 10
pair_coeff 1 2 1169.10574889 0.285525631363 0.0 10
pair_coeff 2 2 5328.19415446 0.197938803692 16.6059399876 10

kspace_style pppm 1.0e-5

neighbor 1.0 bin
neigh_modify every 1 delay 0 check yes
# ---- define settings
compute eng all pe/atom
compute eatoms all reduce sum c_eng
# ---- run minimization
reset_timestep 0
fix 1 all box/relax iso 0.0 vmax 0.001
thermo 10
thermo_style custom step pe lx ly lz xy xz yz press pxx pyy pzz pxy pxz pyz c_eatoms
min_style cg
minimize 1e-25 1e-25 5000 10000
PPPM initialization ...
  G vector (1/distance) = 0.352506
  grid = 8 8 8
  stencil order = 5
  estimated absolute RMS force accuracy = 3.81426e-05
  estimated relative force accuracy = 2.64886e-06
  3d grid and FFT values/proc = 3375 512
  1 neighbor list requests
  update every 1 steps, delay 0 steps, check yes
Step PotEng Lx Ly Lz Xy Xz Yz Press Pxx Pyy Pzz Pxy Pxz Pyz eatoms
0   -108.09373       4.2565       4.2565       4.2565            0            0            0    -32837.55    -32837.55    -32837.55    -32837.55 6.8800808e-12 1.9793426e-10 1.5308399e-10   -108.09373
Loop time of 0.0122111 on 1 procs for 9 steps with 8 atoms

Minimization stats:
  Stopping criterion = linesearch alpha is zero
  Energy initial, next-to-last, final =
  Force two-norm initial, final = 4.74176 0.0024943
  Force max component initial, final = 4.74176 0.00196378
  Final line search alpha, max atom move = 0.00390625 7.67103e-06
  Iterations, force evaluations = 9 28

Pair  time (%) = 0.00331402 (27.1394)
Kspce time (%) = 0.00203991 (16.7054)
Neigh time (%) = 0 (0)
Comm  time (%) = 0.000409603 (3.35435)
Outpt time (%) = 0 (0)
Other time (%) = 0.00644755 (52.8008)

unfix 1
# ---- define output variables ----
variable natoms equal "count(all)"
variable tot_energy equal "c_eatoms"
variable length_x equal "lx"
variable length_y equal "ly"
variable length_z equal "lz"
variable tilt_xy equal "xy"
variable tilt_xz equal "xz"
variable tilt_yz equal "yz"
variable tot_press equal "press"
variable press_xx equal "pxx"
variable press_yy equal "pyy"
variable press_zz equal "pzz"
variable press_xy equal "pxy"
variable press_xz equal "pxz"
variable press_yz equal "pyz"

# ---- output ----
print "pypospack:output_section:begin"
pypospack:output_section:begin
tot_energy = -108.110551708828
num_atoms = 8
xx = 4.22658398474032
yy = 4.22658398474032
zz = 4.22658398474032
xy = 0
xz = 0
yz = 0
tot_press = 13.7927584127517
pxx = 13.7927584125475
pyy = 13.7927584121258
pzz = 13.7927584135819
pxy = -4.49201179574407e-11
pxz = -8.15453399591787e-11
pyz = 2.09702873442201e-11
print "pypospack:output_section:done"
pypospack:output_section:done
print "pypospack:lammps_sim:done"
pypospack:lammps_sim:done
#------------------------------------------------------------------------------
# RUN THERMOSTAT
# running using an NPT Nose-Hoover style thermostat
#------------------------------------------------------------------------------
variable tempdamp equal 0.1
variable pressdamp equal 1.0
# set initial velocities
velocity all create 800 2210875 mom yes dist gaussian loop all
# fix for Nose-Hoover style thermostat
fix 20 all npt temp 800 800 0.1 aniso 0.0 0.0 1.0 drag 1.0 couple xyz
variable boxx equal lx
variable boxy equal ly
variable boxz equal lz
variable boxp equal press
variable boxt equal temp
# calculate averages every 10000 steps
reset_timestep 0
fix 21 all ave/time 10 10 100 v_boxx v_boxy v_boxz v_boxp v_boxt file lattice.out
thermo_style custom step temp pe ke etotal press lx ly lz press pxx pyy pzz pxy pxz pyz vol
thermo_modify flush yes
thermo 100
run 100000
PPPM initialization ...
  G vector (1/distance) = 0.352801
  grid = 8 8 8
  stencil order = 5
  estimated absolute RMS force accuracy = 3.76353e-05
  estimated relative force accuracy = 2.61363e-06
  3d grid and FFT values/proc = 3375 512
Step Temp PotEng KinEng TotEng Press Lx Ly Lz Press Pxx Pyy Pzz Pxy Pxz Pyz Volume
0          800   -108.11055   0.72385681   -107.38669      10254.2     4.226584     4.226584     4.226584      10254.2    2732.2079    12081.043    15949.349   -1496.0498    1408.5046   -3154.7807    75.503748
Averages over the last 501 of 1001 rows, steps 50000 to 100000:
Temp PotEng KinEng TotEng Press Lx Ly Lz Press Pxx Pyy Pzz Pxy Pxz Pyz Volume
799.314 -107.379 0.723236 -106.656 -1059.43 4.23653 4.23653 4.23653 -1059.43 2394.44 -2136.3 -3436.41 2753.65 2239.09 3853.94 76.0381
Loop time of 23.5216 on 1 procs for 100000 steps with 8 atoms

Pair  time (%) = 7.77853 (33.0698)
Kspce time (%) = 5.64325 (23.9918)
Neigh time (%) = 0 (0)
Comm  time (%) = 1.15295 (4.90167)
Outpt time (%) = 0.0264604 (0.112494)
Other time (%) = 8.92038 (37.9242)

unfix 20
unfix 21
print "seeds:2210875"
seeds:2210875
