LAMMPS (10 Feb 2015)
# ---- initialize simulations
clear
units metal
dimension 3
boundary p p p
atom_style charge
atom_modify map array
# ---- create atoms
read_data /Users/eugeneragasa/pyflamestk_git/pypospack/tests/tests_integration/workflow/WorkflowLammpsThermalExpansion/param_785/MgO_NaCl_unit.npt.T300/lammps.structure
  triclinic box = (0 0 0) to (4.2565 4.2565 4.2565) with tilt (0 0 0)
  reading atoms ...
  8 atoms
# ---- define interatomic potential
include potential.mod
mass 1 24.305
mass 2 15.999

group Mg type 1
4 atoms in group Mg
group O type 2
4 atoms in group O

set group Mg charge 1.62294375895
  4 settings made for charge
set group O charge -1.62294375895
  4 settings made for charge

variable R_cut equal 10.0

pair_style buck/coul/long 10
pair_coeff 1 1 0.0 0.5 0.0 10
pair_coeff 1 2 1315.47688947 0.28024601768 0.0 10
pair_coeff 2 2 7992.27283476 0.124296175577 7.5002562575 10

kspace_style pppm 1.0e-5

neighbor 1.0 bin
neigh_modify every 1 delay 0 check yes
# ---- define settings
compute eng all pe/atom
compute eatoms all reduce sum c_eng
# ---- run minimization
reset_timestep 0
fix 1 all box/relax iso 0.0 vmax 0.001
thermo 10
thermo_style custom step pe lx ly lz xy xz yz press pxx pyy pzz pxy pxz pyz c_eatoms
min_style cg
minimize 1e-25 1e-25 5000 10000
PPPM initialization ...
  G vector (1/distance) = 0.352546
  grid = 8 8 8
  stencil order = 5
  estimated absolute RMS force accuracy = 3.83063e-05
  estimated relative force accuracy = 2.66022e-06
  3d grid and FFT values/proc = 3375 512
  1 neighbor list requests
  update every 1 steps, delay 0 steps, check yes
Step PotEng Lx Ly Lz Xy Xz Yz Press Pxx Pyy Pzz Pxy Pxz Pyz eatoms
0   -108.88461       4.2565       4.2565       4.2565            0            0            0   -30879.056   -30879.056   -30879.056   -30879.056 -2.5133272e-10 -7.2643252e-11 5.7873381e-11   -108.88461
Loop time of 0.00812888 on 1 procs for 12 steps with 8 atoms

Minimization stats:
  Stopping criterion = linesearch alpha is zero
  Energy initial, next-to-last, final =
  Force two-norm initial, final = 4.45895 5.1421e-05
  Force max component initial, final = 4.45895 3.59365e-05
  Final line search alpha, max atom move = 0.5 1.79683e-05
  Iterations, force evaluations = 12 23

Pair  time (%) = 0.00230432 (28.3473)
Kspce time (%) = 0.00137782 (16.9497)
Neigh time (%) = 0 (0)
Comm  time (%) = 0.000259876 (3.19695)
Outpt time (%) = 1.3113e-05 (0.161314)
Other time (%) = 0.00417376 (51.3448)

unfix 1
# ---- define output variables ----
variable natoms equal "count(all)"
variable tot_energy equal "c_eatoms"
variable length_x equal "lx"
variable length_y equal "ly"
variable length_z equal "lz"
variable tilt_xy equal "xy"
variable tilt_xz equal "xz"
variable tilt_yz equal "yz"
variable tot_press equal "press"
variable press_xx equal "pxx"
variable press_yy equal "pyy"
variable press_zz equal "pzz"
variable press_xy equal "pxy"
variable press_xz equal "pxz"
variable press_yz equal "pyz"

# ---- output ----
print "pypospack:output_section:begin"
pypospack:output_section:begin
tot_energy = -108.899110631848
num_atoms = 8
xx = 4.22905766787052
yy = 4.22905766787052
zz = 4.22905766787052
xy = 0
xz = 0
yz = 0
tot_press = 0.252107417895481
pxx = 0.252107418292273
pyy = 0.252107418323333
pzz = 0.252107417070837
pxy = 1.36580554666579e-10
pxz = -3.20776791999541e-12
pyz = -1.32691186845421e-10
print "pypospack:output_section:done"
pypospack:output_section:done
print "pypospack:lammps_sim:done"
pypospack:lammps_sim:done
#------------------------------------------------------------------------------
# RUN THERMOSTAT
# running using an NPT Nose-Hoover style thermostat
#------------------------------------------------------------------------------
variable tempdamp equal 0.1
variable pressdamp equal 1.0
# set initial velocities
velocity all create 300 250968 mom yes dist gaussian loop all
# fix for Nose-Hoover style thermostat
fix 20 all npt temp 300 300 0.1 aniso 0.0 0.0 1.0 drag 1.0 couple xyz
variable boxx equal lx
variable boxy equal ly
variable boxz equal lz
variable boxp equal press
variable boxt equal temp
# calculate averages every 10000 steps
reset_timestep 0
fix 21 all ave/time 10 10 100 v_boxx v_boxy v_boxz v_boxp v_boxt file lattice.out
thermo_style custom step temp pe ke etotal press lx ly lz press pxx pyy pzz pxy pxz pyz vol
thermo_modify flush yes
thermo 100
run 100000
PPPM initialization ...
  G vector (1/distance) = 0.352817
  grid = 8 8 8
  stencil order = 5
  estimated absolute RMS force accuracy = 3.78369e-05
  estimated relative force accuracy = 2.62763e-06
  3d grid and FFT values/proc = 3375 512
Step Temp PotEng KinEng TotEng Press Lx Ly Lz Press Pxx Pyy Pzz Pxy Pxz Pyz Volume
0          300   -108.89911    0.2714463   -108.62766    3833.8466    4.2290577    4.2290577    4.2290577    3833.8466    1743.7755    3739.2792    6018.4851    19.971141   -1929.7741    2249.3999    75.636395
Averages over the last 501 of 1001 rows, steps 50000 to 100000:
Temp PotEng KinEng TotEng Press Lx Ly Lz Press Pxx Pyy Pzz Pxy Pxz Pyz Volume
300.242 -108.627 0.271666 -108.355 -548.193 4.24372 4.24372 4.24372 -548.193 -7771.05 -1052.31 7178.78 -498.414 -58.8264 -155.137 76.4258
Loop time of 22.4965 on 1 procs for 100000 steps with 8 atoms

Pair  time (%) = 7.4463 (33.0998)
Kspce time (%) = 5.29337 (23.5298)
Neigh time (%) = 0 (0)
Comm  time (%) = 1.05957 (4.70994)
Outpt time (%) = 0.0255709 (0.113666)
Other time (%) = 8.67167 (38.5468)

unfix 20
unfix 21
print "seeds:250968"
seeds:250968
