LAMMPS (11 Aug 2017)
# ---- initialize simulations
clear
units metal
dimension 3
boundary p p p
atom_style atomic
atom_modify map array
# ---- create atoms
read_data /home/sullberg/repos/pypospack/examples/Ni__eam__born_exp_rose/01_preconditioning_3.5NN/rank_11/Ni_dia.lmps_min_all/lammps.structure
  triclinic box = (0 0 0) to (4.8791 4.8791 4.8791) with tilt (0 0 0)
  reading atoms ...
  8 atoms
# ---- define interatomic potential
include potential.mod
mass 1 58.6934

group Ni type 1
8 atoms in group Ni

pair_style eam/alloy
pair_coeff * * /home/sullberg/repos/pypospack/examples/Ni__eam__born_exp_rose/01_preconditioning_3.5NN/rank_11/Ni_dia.lmps_min_all/Ni.eam.alloy Ni

neighbor 1.0 bin
neigh_modify every 1 delay 0 check yes
# ---- define settings
compute eng all pe/atom
compute eatoms all reduce sum c_eng
# ---- run minimization
reset_timestep 0
fix 1 all box/relax aniso 0.0 vmax 0.001
thermo 10
thermo_style custom step pe xhi xlo yhi ylo zhi xy xz yz press pxx pyy pzz pxy pxz pyz c_eatoms
min_style cg
minimize 1e-25 1e-25 5000 10000
  update every 1 steps, delay 0 steps, check yes
Step PotEng Xhi Xlo Yhi Ylo Zhi Xy Xz Yz Press Pxx Pyy Pzz Pxy Pxz Pyz c_eatoms
0   -29.008422       4.8791            0       4.8791            0       4.8791            0            0            0   -65965.883   -65965.883   -65965.883   -65965.883    -9.795077    -9.795077    -9.795077   -29.008422
Averages over the last 61 of 121 rows, steps 600 to 1197:
PotEng Xhi Xlo Yhi Ylo Zhi Xy Xz Yz Press Pxx Pyy Pzz Pxy Pxz Pyz c_eatoms
-35.6899 3.65379 1.22531 4.68701 0.192085 6.4428 0 0 0 2301.64 226.982 -3355.87 10033.8 5453.08 482.824 -2500.62 -35.6899
Loop time of 0.272161 on 1 procs for 1197 steps with 8 atoms

Minimization stats:
  Stopping criterion = linesearch alpha is zero
  Energy initial, next-to-last, final =
  Force two-norm initial, final = 8.28302 2.28942e-07
  Force max component initial, final = 4.7822 8.27988e-08
  Final line search alpha, max atom move = 0.5 4.13994e-08
  Iterations, force evaluations = 1197 1401

# ---- define output variables ----
variable natoms equal "count(all)"
variable tot_energy equal "c_eatoms"
variable a11 equal "xhi-xlo"
variable a22 equal "yhi-ylo"
variable a33 equal "zhi-zlo"
variable tilt_xy equal "xy"
variable tilt_xz equal "xz"
variable tilt_yz equal "yz"
variable tot_press equal "press"
variable press_xx equal "pxx"
variable press_yy equal "pyy"
variable press_zz equal "pzz"
variable press_xy equal "pxy"
variable press_xz equal "pxz"
variable press_yz equal "pyz"

# ---- output ----
print "pypospack:output_section:begin"
pypospack:output_section:begin
tot_energy = -35.9502077586984
num_atoms = 8
a11 = 2.48466003991345
a22 = 4.30355732319114
a33 = 8.1157035112078
a12 = 0
a13 = 0
a23 = 0
tot_press = 0.000161660136183132
pxx = -1.72722331008811e-05
pyy = 0.000295099429019238
pzz = 0.00020715321263104
pxy = -0.00968015107219056
pxz = 2.60136803772683e-10
pyz = -2.04836528492744e-10
print "pypospack:output_section:done"
pypospack:output_section:done
print "pypospack:lammps_sim:done"
pypospack:lammps_sim:done
