LAMMPS (11 Aug 2017)
# ---- initialize simulations
clear
units metal
dimension 3
boundary p p p
atom_style atomic
atom_modify map array
# ---- create atoms
read_data /home/sullberg/repos/pypospack/examples/Ni__eam__born_exp_rose/01_preconditioning_3.5NN/rank_5/Ni_fcc_vac.lmps_min_pos/lammps.structure
  triclinic box = (0 0 0) to (26.9252 26.9252 26.9252) with tilt (0 -0 -0)
  reading atoms ...
  107 atoms
# ---- define interatomic potential
include potential.mod
mass 1 58.6934

group Ni type 1
107 atoms in group Ni

pair_style eam/alloy
pair_coeff * * /home/sullberg/repos/pypospack/examples/Ni__eam__born_exp_rose/01_preconditioning_3.5NN/rank_5/Ni_fcc_vac.lmps_min_pos/Ni.eam.alloy Ni

neighbor 1.0 bin
neigh_modify every 1 delay 0 check yes
# ---- define settings
compute eng all pe/atom
compute eatoms all reduce sum c_eng

# ---- run minimization
reset_timestep 0
thermo 1
thermo_style custom step pe lx ly lz xy xz yz press pxx pyy pzz pxy pxz pyz c_eatoms
min_style cg
minimize 1e-20 1e-20 1000 100000
  update every 1 steps, delay 0 steps, check yes
Step PotEng Lx Ly Lz Xy Xz Yz Press Pxx Pyy Pzz Pxy Pxz Pyz c_eatoms
0   -271.84788      26.9252      26.9252      26.9252            0           -0           -0    -62.04305    -62.04305    -62.04305    -62.04305 4.4607219e-09 4.4607383e-09 4.4607566e-09   -271.84788
Averages over the last 501 of 1001 rows, steps 500 to 1000:
PotEng Lx Ly Lz Xy Xz Yz Press Pxx Pyy Pzz Pxy Pxz Pyz c_eatoms
-973.285 26.9252 26.9252 26.9252 0 0 0 -64.7555 -67.3152 -63.8858 -63.0655 -12.6105 -23.6747 -17.0234 -973.285
Loop time of 0.371799 on 1 procs for 1000 steps with 107 atoms

Minimization stats:
  Stopping criterion = max iterations
  Energy initial, next-to-last, final =
  Force two-norm initial, final = 0.00194812 0.190308
  Force max component initial, final = 0.000397798 0.0717936
  Final line search alpha, max atom move = 0.217843 0.0156398
  Iterations, force evaluations = 1000 1370

# ---- define output variables ----
variable natoms equal "count(all)"
variable tot_energy equal "c_eatoms"
variable a11 equal "xhi-xlo"
variable a22 equal "yhi-ylo"
variable a33 equal "zhi-zlo"
variable tilt_xy equal "xy"
variable tilt_xz equal "xz"
variable tilt_yz equal "yz"
variable tot_press equal "press"
variable press_xx equal "pxx"
variable press_yy equal "pyy"
variable press_zz equal "pzz"
variable press_xy equal "pxy"
variable press_xz equal "pxz"
variable press_yz equal "pyz"

# ---- output ----
print "pypospack:output_section:begin"
pypospack:output_section:begin
tot_energy = -1079.97132351655
num_atoms = 107
a11 = 26.9252
a22 = 26.9252
a33 = 26.9252
a12 = 0
a13 = -0
a23 = -0
tot_press = 66.0715368310568
pxx = 68.8178067425133
pyy = 65.0933464149073
pzz = 64.3034573357499
pxy = 1.27146682570248
pxz = 3.96456191475494
pyz = 2.72628268011329
print "pypospack:output_section:done"
pypospack:output_section:done
print "pypospack:lammps_sim:done"
pypospack:lammps_sim:done
