LAMMPS (11 Aug 2017)
# ---- initialize simulations
clear
units metal
dimension 3
boundary p p p
atom_style atomic
atom_modify map array
# ---- create atoms
read_data /home/sullberg/repos/pypospack/examples/Ni__eam__born_exp_rose/01_preconditioning_3.5NN/rank_14/Ni_fcc_110_s.lmps_min_pos/lammps.structure
  triclinic box = (0 0 0) to (9.1047 6.5175 65.1752) with tilt (0 0 0)
  reading atoms ...
  10 atoms
# ---- define interatomic potential
include potential.mod
mass 1 58.6934

group Ni type 1
10 atoms in group Ni

pair_style eam/alloy
pair_coeff * * /home/sullberg/repos/pypospack/examples/Ni__eam__born_exp_rose/01_preconditioning_3.5NN/rank_14/Ni_fcc_110_s.lmps_min_pos/Ni.eam.alloy Ni

neighbor 1.0 bin
neigh_modify every 1 delay 0 check yes
# ---- define settings
compute eng all pe/atom
compute eatoms all reduce sum c_eng

# ---- run minimization
reset_timestep 0
thermo 1
thermo_style custom step pe lx ly lz xy xz yz press pxx pyy pzz pxy pxz pyz c_eatoms
min_style cg
minimize 1e-20 1e-20 1000 100000
  update every 1 steps, delay 0 steps, check yes
Step PotEng Lx Ly Lz Xy Xz Yz Press Pxx Pyy Pzz Pxy Pxz Pyz c_eatoms
0   -1.0751318       9.1047       6.5175      65.1752            0            0            0   -119.09344   -120.68757   -124.55642   -112.03634 2.6781921e-07 -0.00064638516 0.0002801448   -1.0751318
Averages over the last 501 of 1001 rows, steps 500 to 1000:
PotEng Lx Ly Lz Xy Xz Yz Press Pxx Pyy Pzz Pxy Pxz Pyz c_eatoms
-47.7595 9.1047 6.5175 65.1752 0 0 0 2.52502 0.978977 5.78623 0.809856 0.121785 0.0401288 -0.0405613 -47.7595
Loop time of 0.0670092 on 1 procs for 1000 steps with 10 atoms

Minimization stats:
  Stopping criterion = max iterations
  Energy initial, next-to-last, final =
  Force two-norm initial, final = 0.0109704 0.00263144
  Force max component initial, final = 0.00739522 0.00138661
  Final line search alpha, max atom move = 1 0.00138661
  Iterations, force evaluations = 1000 1803

# ---- define output variables ----
variable natoms equal "count(all)"
variable tot_energy equal "c_eatoms"
variable a11 equal "xhi-xlo"
variable a22 equal "yhi-ylo"
variable a33 equal "zhi-zlo"
variable tilt_xy equal "xy"
variable tilt_xz equal "xz"
variable tilt_yz equal "yz"
variable tot_press equal "press"
variable press_xx equal "pxx"
variable press_yy equal "pyy"
variable press_zz equal "pzz"
variable press_xy equal "pxy"
variable press_xz equal "pxz"
variable press_yz equal "pyz"

# ---- output ----
print "pypospack:output_section:begin"
pypospack:output_section:begin
tot_energy = -47.759811570041
num_atoms = 10
a11 = 9.1047
a22 = 6.5175
a33 = 65.1752
a12 = 0
a13 = 0
a23 = 0
tot_press = 2.72075223574099
pxx = 1.70113350394892
pyy = 5.20578743890068
pzz = 1.25533576437336
pxy = -0.0212041869688116
pxz = -0.0789327410484524
pyz = -0.0196444661078605
print "pypospack:output_section:done"
pypospack:output_section:done
print "pypospack:lammps_sim:done"
pypospack:lammps_sim:done
