LAMMPS (10 Feb 2015)
# ---- initialize simulations
clear
units metal
dimension 3
boundary p p p
atom_style charge
atom_modify map array
# ---- create atoms
read_data /Users/eugeneragasa/pyflamestk_git/pypospack/tests/tests_integration/workflow/WorkflowLammpsThermalExpansion/param_5861/MgO_NaCl_unit.npt.T100/lammps.structure
  triclinic box = (0 0 0) to (4.2565 4.2565 4.2565) with tilt (0 0 0)
  reading atoms ...
  8 atoms
# ---- define interatomic potential
include potential.mod
mass 1 24.305
mass 2 15.999

group Mg type 1
4 atoms in group Mg
group O type 2
4 atoms in group O

set group Mg charge 1.63577302612
  4 settings made for charge
set group O charge -1.63577302612
  4 settings made for charge

variable R_cut equal 10.0

pair_style buck/coul/long 10
pair_coeff 1 1 0.0 0.5 0.0 10
pair_coeff 1 2 1558.72850733 0.278190610155 0.0 10
pair_coeff 2 2 26609.5495557 0.148782776904 9.00084075824 10

kspace_style pppm 1.0e-5

neighbor 1.0 bin
neigh_modify every 1 delay 0 check yes
# ---- define settings
compute eng all pe/atom
compute eatoms all reduce sum c_eng
# ---- run minimization
reset_timestep 0
fix 1 all box/relax iso 0.0 vmax 0.001
thermo 10
thermo_style custom step pe lx ly lz xy xz yz press pxx pyy pzz pxy pxz pyz c_eatoms
min_style cg
minimize 1e-25 1e-25 5000 10000
PPPM initialization ...
  G vector (1/distance) = 0.352653
  grid = 8 8 8
  stencil order = 5
  estimated absolute RMS force accuracy = 3.87471e-05
  estimated relative force accuracy = 2.69083e-06
  3d grid and FFT values/proc = 3375 512
  1 neighbor list requests
  update every 1 steps, delay 0 steps, check yes
Step PotEng Lx Ly Lz Xy Xz Yz Press Pxx Pyy Pzz Pxy Pxz Pyz eatoms
0   -109.00108       4.2565       4.2565       4.2565            0            0            0    61252.417    61252.417    61252.417    61252.417 -3.6848803e-11 -3.3369169e-11 3.6549969e-10   -109.00108
Loop time of 0.00799894 on 1 procs for 15 steps with 8 atoms

Minimization stats:
  Stopping criterion = linesearch alpha is zero
  Energy initial, next-to-last, final =
  Force two-norm initial, final = 8.84488 3.43431e-05
  Force max component initial, final = 8.84488 7.26821e-06
  Final line search alpha, max atom move = 0.5 3.63411e-06
  Iterations, force evaluations = 15 22

Pair  time (%) = 0.00223684 (27.9642)
Kspce time (%) = 0.0012939 (16.1759)
Neigh time (%) = 0 (0)
Comm  time (%) = 0.000250816 (3.13562)
Outpt time (%) = 1.21593e-05 (0.152012)
Other time (%) = 0.00420523 (52.5723)

unfix 1
# ---- define output variables ----
variable natoms equal "count(all)"
variable tot_energy equal "c_eatoms"
variable length_x equal "lx"
variable length_y equal "ly"
variable length_z equal "lz"
variable tilt_xy equal "xy"
variable tilt_xz equal "xz"
variable tilt_yz equal "yz"
variable tot_press equal "press"
variable press_xx equal "pxx"
variable press_yy equal "pyy"
variable press_zz equal "pzz"
variable press_xy equal "pxy"
variable press_xz equal "pxz"
variable press_yz equal "pyz"

# ---- output ----
print "pypospack:output_section:begin"
pypospack:output_section:begin
tot_energy = -109.052033723467
num_atoms = 8
xx = 4.30669636930156
yy = 4.30669636930156
zz = 4.30669636930156
xy = 0
xz = 0
yz = 0
tot_press = 0.00342503281246904
pxx = 0.00342503266517326
pyy = 0.00342503296687446
pzz = 0.00342503280535941
pxy = -1.85539817051957e-10
pxz = 4.38238030577261e-11
pyz = -1.45514027090344e-10
print "pypospack:output_section:done"
pypospack:output_section:done
print "pypospack:lammps_sim:done"
pypospack:lammps_sim:done
#------------------------------------------------------------------------------
# RUN THERMOSTAT
# running using an NPT Nose-Hoover style thermostat
#------------------------------------------------------------------------------
variable tempdamp equal 0.1
variable pressdamp equal 1.0
# set initial velocities
velocity all create 100 4019872 mom yes dist gaussian loop all
# fix for Nose-Hoover style thermostat
fix 20 all npt temp 100 100 0.1 aniso 0.0 0.0 1.0 drag 1.0 couple xyz
variable boxx equal lx
variable boxy equal ly
variable boxz equal lz
variable boxp equal press
variable boxt equal temp
# calculate averages every 10000 steps
reset_timestep 0
fix 21 all ave/time 10 10 100 v_boxx v_boxy v_boxz v_boxp v_boxt file lattice.out
thermo_style custom step temp pe ke etotal press lx ly lz press pxx pyy pzz pxy pxz pyz vol
thermo_modify flush yes
thermo 100
run 100000
PPPM initialization ...
  G vector (1/distance) = 0.352152
  grid = 8 8 8
  stencil order = 5
  estimated absolute RMS force accuracy = 3.96483e-05
  estimated relative force accuracy = 2.75342e-06
  3d grid and FFT values/proc = 3375 512
Step Temp PotEng KinEng TotEng Press Lx Ly Lz Press Pxx Pyy Pzz Pxy Pxz Pyz Volume
0          100   -109.05204  0.090482102   -108.96156    1208.4441    4.3066964    4.3066964    4.3066964    1208.4441    1374.8319    1062.0652    1188.4351    546.92754   -138.45237   -81.212388    79.879026
Averages over the last 501 of 1001 rows, steps 50000 to 100000:
Temp PotEng KinEng TotEng Press Lx Ly Lz Press Pxx Pyy Pzz Pxy Pxz Pyz Volume
99.9934 -108.961 0.0904762 -108.871 -158.504 4.31212 4.31212 4.31212 -158.504 -576.387 -1433.03 1533.91 -113.156 -79.2228 13.8228 80.1814
Loop time of 22.2297 on 1 procs for 100000 steps with 8 atoms

Pair  time (%) = 7.09583 (31.9206)
Kspce time (%) = 5.31821 (23.924)
Neigh time (%) = 0 (0)
Comm  time (%) = 1.08014 (4.85902)
Outpt time (%) = 0.0334404 (0.150431)
Other time (%) = 8.70203 (39.146)

unfix 20
unfix 21
print "seeds:4019872"
seeds:4019872
